<?xml version="1.0" encoding="UTF-8"?>

<!-- generated on Sat Jan  1 05:08:39 2022 by Eclipse SUMO netconvert Version 1.8.0
<configuration xmlns:xsi="http://www.w3.org/2001/XMLSchema-instance" xsi:noNamespaceSchemaLocation="http://sumo.dlr.de/xsd/netconvertConfiguration.xsd">

    <input>
        <sumo-net-file value="berkeley.net.xml"/>
    </input>

    <output>
        <plain-output-prefix value="temp"/>
    </output>

    <processing>
        <geometry.min-radius.fix.railways value="false"/>
        <geometry.max-grade.fix value="false"/>
        <offset.disable-normalization value="true"/>
        <lefthand value="false"/>
    </processing>

    <junctions>
        <no-turnarounds value="true"/>
        <junctions.corner-detail value="5"/>
        <junctions.limit-turn-speed value="5.5"/>
        <rectangular-lane-cut value="false"/>
    </junctions>

    <pedestrian>
        <walkingareas value="false"/>
    </pedestrian>

    <report>
        <aggregate-warnings value="5"/>
    </report>

</configuration>
-->

<connections version="1.6" xmlns:xsi="http://www.w3.org/2001/XMLSchema-instance" xsi:noNamespaceSchemaLocation="http://sumo.dlr.de/xsd/connections_file.xsd">
    <connection from="-1000613220#0" to="-1000613220#0.29" fromLane="0" toLane="0"/>

    <connection from="-1000613220#0.29" to="-1000613220#0.54" fromLane="0" toLane="0"/>

    <connection from="-1000613220#0.54" to="-1000613220#0.72" fromLane="0" toLane="0"/>

    <connection from="-1000613220#0.72" to="-698994084" fromLane="0" toLane="0"/>

    <connection from="-1000613220#1" to="-1000613220#0" fromLane="0" toLane="0"/>

    <connection from="-1000613220#2" to="-1000613220#1" fromLane="0" toLane="0"/>

    <connection from="-1000720852" to="-25968351#7" fromLane="0" toLane="0"/>
    <connection from="-1000720852" to="165864142#4" fromLane="0" toLane="0"/>
    <connection from="-1000720852" to="1000720852" fromLane="0" toLane="0"/>

    <connection from="-1000720853#0" to="415876771#0" fromLane="0" toLane="0"/>
    <connection from="-1000720853#0" to="-1000720854" fromLane="0" toLane="0"/>
    <connection from="-1000720853#0" to="1000720853#0" fromLane="0" toLane="0"/>

    <connection from="-1000720853#1" to="-1000720853#1.19" fromLane="0" toLane="0"/>

    <connection from="-1000720853#1.19" to="-1000720853#0" fromLane="0" toLane="0"/>

    <connection from="-1000720853#2" to="-1000720853#1" fromLane="0" toLane="0"/>

    <connection from="-1000720853#3" to="517593874#0" fromLane="0" toLane="0"/>
    <connection from="-1000720853#3" to="-1000720853#2" fromLane="0" toLane="0"/>
    <connection from="-1000720853#3" to="-575429935#2" fromLane="0" toLane="0"/>
    <connection from="-1000720853#3" to="1000720853#3" fromLane="0" toLane="0"/>

    <connection from="-1000720853#4" to="-1000720853#3" fromLane="0" toLane="0"/>

    <connection from="-1000720853#5" to="-1000720853#4" fromLane="0" toLane="0"/>

    <connection from="-1000720853#6" to="-1000720853#5" fromLane="0" toLane="0"/>

    <connection from="-1000720853#7" to="-1000720853#7.3" fromLane="0" toLane="0"/>

    <connection from="-1000720853#7.3" to="-1000720853#6" fromLane="0" toLane="0"/>

    <connection from="-1000720854" to="-6332538#10" fromLane="0" toLane="0"/>
    <connection from="-1000720854" to="165864142#0" fromLane="0" toLane="0"/>
    <connection from="-1000720854" to="1000720854" fromLane="0" toLane="0"/>

    <connection from="-1008190557#0" to="-416099542#2" fromLane="0" toLane="0"/>

    <connection from="-1008190557#1" to="-1008190557#0" fromLane="0" toLane="0"/>

    <connection from="-1014203284#0" to="-1014203284#0.1" fromLane="0" toLane="0"/>

    <connection from="-1014203284#0.1" to="415870529#0" fromLane="0" toLane="0"/>

    <connection from="-1014203284#1" to="-1014203284#0" fromLane="0" toLane="0"/>

    <connection from="-1014203284#2" to="-1014203284#1" fromLane="0" toLane="0"/>
    <connection from="-1014203284#2" to="6353149" fromLane="0" toLane="0"/>
    <connection from="-1014203284#2" to="1014203284#2" fromLane="0" toLane="0"/>

    <connection from="-1014203284#3" to="-1014203284#3.2" fromLane="0" toLane="0"/>

    <connection from="-1014203284#3.191" to="-30832687#3" fromLane="0" toLane="0"/>
    <connection from="-1014203284#3.191" to="-1014203284#2" fromLane="0" toLane="0"/>
    <connection from="-1014203284#3.191" to="30832687#4" fromLane="0" toLane="0"/>
    <connection from="-1014203284#3.191" to="1014203284#3" fromLane="0" toLane="0"/>

    <connection from="-1014203284#3.2" to="-1014203284#3.5" fromLane="0" toLane="0"/>

    <connection from="-1014203284#3.5" to="-1014203284#3.191" fromLane="0" toLane="0"/>

    <connection from="-10281579#0" to="27771323#0" fromLane="0" toLane="0"/>

    <connection from="-10281579#1" to="-10281579#0" fromLane="0" toLane="0"/>

    <connection from="-10281579#2" to="-10281579#1" fromLane="0" toLane="0"/>

    <connection from="-10281579#3" to="-10281579#2" fromLane="0" toLane="0"/>

    <connection from="-10281579#4" to="-10281579#3" fromLane="0" toLane="0"/>

    <connection from="-10281580" to="-10281580.8" fromLane="0" toLane="0"/>

    <connection from="-10281580.8" to="-6347790" fromLane="0" toLane="0"/>

    <connection from="-10281582#0" to="-421598410" fromLane="0" toLane="0"/>
    <connection from="-10281582#0" to="6347790" fromLane="0" toLane="0"/>
    <connection from="-10281582#0" to="10281582#0" fromLane="0" toLane="0"/>

    <connection from="-10281582#1" to="-10281582#1.7" fromLane="0" toLane="0"/>

    <connection from="-10281582#1.7" to="-10281582#0" fromLane="0" toLane="0"/>

    <connection from="-10281582#2" to="-10281582#2.7" fromLane="0" toLane="0"/>

    <connection from="-10281582#2.7" to="-10281582#2.87" fromLane="0" toLane="0"/>

    <connection from="-10281582#2.87" to="-10281582#1" fromLane="0" toLane="0"/>
    <connection from="-10281582#2.87" to="42294563" fromLane="0" toLane="0"/>
    <connection from="-10281582#2.87" to="10281582#2" fromLane="0" toLane="0"/>

    <connection from="-10281583" to="-421986025#0" fromLane="0" toLane="0"/>
    <connection from="-10281583" to="421986025#1" fromLane="0" toLane="0"/>
    <connection from="-10281583" to="10281583" fromLane="0" toLane="0"/>

    <connection from="-10284131#0" to="10284131#0" fromLane="0" toLane="0"/>

    <connection from="-10284131#1" to="-10284131#0" fromLane="0" toLane="0"/>

    <connection from="-10284131#10" to="-10284131#10.9" fromLane="0" toLane="0"/>

    <connection from="-10284131#10.9" to="-27008000#1" fromLane="0" toLane="0"/>
    <connection from="-10284131#10.9" to="-10284131#9" fromLane="0" toLane="0"/>
    <connection from="-10284131#10.9" to="27008000#2" fromLane="0" toLane="0"/>
    <connection from="-10284131#10.9" to="10284131#10" fromLane="0" toLane="0"/>

    <connection from="-10284131#11" to="-10284131#11.91" fromLane="0" toLane="0"/>

    <connection from="-10284131#11.91" to="-189656671" fromLane="0" toLane="0"/>
    <connection from="-10284131#11.91" to="-10284131#10" fromLane="0" toLane="0"/>
    <connection from="-10284131#11.91" to="189656675#0" fromLane="0" toLane="0"/>
    <connection from="-10284131#11.91" to="10284131#11" fromLane="0" toLane="0"/>

    <connection from="-10284131#2" to="-10284131#2.7" fromLane="0" toLane="0"/>

    <connection from="-10284131#2.7" to="-10284131#1" fromLane="0" toLane="0"/>

    <connection from="-10284131#3" to="-10284131#3.56" fromLane="0" toLane="0"/>

    <connection from="-10284131#3.56" to="-541342114#0" fromLane="0" toLane="0"/>
    <connection from="-10284131#3.56" to="-10284131#2" fromLane="0" toLane="0"/>
    <connection from="-10284131#3.56" to="541342114#1" fromLane="0" toLane="0"/>
    <connection from="-10284131#3.56" to="10284131#3" fromLane="0" toLane="0"/>

    <connection from="-10284131#4" to="-10284131#3" fromLane="0" toLane="0"/>

    <connection from="-10284131#5" to="-189630560#5" fromLane="0" toLane="0"/>
    <connection from="-10284131#5" to="-10284131#4" fromLane="0" toLane="0"/>
    <connection from="-10284131#5" to="189630560#6" fromLane="0" toLane="0"/>
    <connection from="-10284131#5" to="10284131#5" fromLane="0" toLane="0"/>

    <connection from="-10284131#6" to="-10284131#5" fromLane="0" toLane="0"/>

    <connection from="-10284131#7" to="-10284131#7.11" fromLane="0" toLane="0"/>

    <connection from="-10284131#7.11" to="-415870511#3" fromLane="0" toLane="0"/>
    <connection from="-10284131#7.11" to="-10284131#6" fromLane="0" toLane="0"/>
    <connection from="-10284131#7.11" to="415870511#4" fromLane="0" toLane="0"/>
    <connection from="-10284131#7.11" to="10284131#7" fromLane="0" toLane="0"/>

    <connection from="-10284131#8" to="-10284131#8.39" fromLane="0" toLane="0"/>

    <connection from="-10284131#8.39" to="-9579733#9" fromLane="0" toLane="0"/>
    <connection from="-10284131#8.39" to="-10284131#7" fromLane="0" toLane="0"/>
    <connection from="-10284131#8.39" to="9579733#10" fromLane="0" toLane="0"/>
    <connection from="-10284131#8.39" to="10284131#8" fromLane="0" toLane="0"/>

    <connection from="-10284131#9" to="-10284131#9.7" fromLane="0" toLane="0"/>

    <connection from="-10284131#9.7" to="-10284131#8" fromLane="0" toLane="0"/>

    <connection from="-10284134" to="-10284134.7" fromLane="0" toLane="0"/>

    <connection from="-10284134.7" to="10284134" fromLane="0" toLane="0"/>

    <connection from="-10285117#0" to="10285117#0" fromLane="0" toLane="0"/>

    <connection from="-10285117#1" to="-10285117#0" fromLane="0" toLane="0"/>

    <connection from="-10376538#0" to="-10376538#0.22" fromLane="0" toLane="0"/>

    <connection from="-10376538#0.22" to="-10376538#0.83" fromLane="0" toLane="0"/>

    <connection from="-10376538#0.83" to="-209307271#3" fromLane="0" toLane="0"/>
    <connection from="-10376538#0.83" to="-16260976#1" fromLane="0" toLane="0"/>
    <connection from="-10376538#0.83" to="209307271#5" fromLane="0" toLane="0"/>
    <connection from="-10376538#0.83" to="10376538#0" fromLane="0" toLane="0"/>

    <connection from="-10376538#1" to="-209305485" fromLane="0" toLane="0"/>
    <connection from="-10376538#1" to="-10376538#0" fromLane="0" toLane="0"/>
    <connection from="-10376538#1" to="10376538#1" fromLane="0" toLane="0"/>

    <connection from="-10376538#2" to="-10376538#2.7" fromLane="0" toLane="0"/>

    <connection from="-10376538#2.7" to="-10376538#1" fromLane="0" toLane="0"/>

    <connection from="-10376538#3" to="-209305480" fromLane="0" toLane="0"/>
    <connection from="-10376538#3" to="-10376538#2" fromLane="0" toLane="0"/>
    <connection from="-10376538#3" to="37888792" fromLane="0" toLane="0"/>
    <connection from="-10376538#3" to="10376538#3" fromLane="0" toLane="0"/>

    <connection from="-10377674" to="-10377674.7" fromLane="0" toLane="0"/>

    <connection from="-10377674.283" to="-10377674.284" fromLane="0" toLane="0"/>

    <connection from="-10377674.284" to="481521358#0" fromLane="0" toLane="0"/>

    <connection from="-10377674.7" to="-10377674.283" fromLane="0" toLane="0"/>

    <connection from="-10389874" to="437142999#0" fromLane="0" toLane="0"/>
    <connection from="-10389874" to="-184924125#1" fromLane="0" toLane="0"/>
    <connection from="-10389874" to="10389874" fromLane="0" toLane="0"/>

    <connection from="-10585275#0" to="-10585275#0.8" fromLane="0" toLane="0"/>

    <connection from="-10585275#0.30" to="10585275#0" fromLane="0" toLane="0"/>

    <connection from="-10585275#0.8" to="-10585275#0.30" fromLane="0" toLane="0"/>

    <connection from="-10585275#1" to="-10585275#1.28" fromLane="0" toLane="0"/>

    <connection from="-10585275#1.28" to="-195430724#12" fromLane="0" toLane="0"/>
    <connection from="-10585275#1.28" to="-10585275#0" fromLane="0" toLane="0"/>
    <connection from="-10585275#1.28" to="195430724#13" fromLane="0" toLane="0"/>
    <connection from="-10585275#1.28" to="10585275#1" fromLane="0" toLane="0"/>

    <connection from="-10585275#2" to="-10585275#1" fromLane="0" toLane="0"/>

    <connection from="-10585275#3" to="-10585275#3.3" fromLane="0" toLane="0"/>

    <connection from="-10585275#3.3" to="-10585275#3.79" fromLane="0" toLane="0"/>

    <connection from="-10585275#3.79" to="-6357225" fromLane="0" toLane="0"/>
    <connection from="-10585275#3.79" to="-10585275#2" fromLane="0" toLane="0"/>
    <connection from="-10585275#3.79" to="10585275#3" fromLane="0" toLane="0"/>

    <connection from="-10585277#0" to="-10585277#0.48" fromLane="0" toLane="0"/>

    <connection from="-10585277#0.48" to="-10585277#0.51" fromLane="0" toLane="0"/>

    <connection from="-10585277#0.51" to="-10585277#0.54" fromLane="0" toLane="0"/>

    <connection from="-10585277#0.54" to="6338310#0" fromLane="0" toLane="0"/>

    <connection from="-10585277#1" to="-215827734" fromLane="0" toLane="0"/>
    <connection from="-10585277#1" to="-10585277#0" fromLane="0" toLane="0"/>
    <connection from="-10585277#1" to="10585277#1" fromLane="0" toLane="0"/>

    <connection from="-10585277#2" to="-10585277#1" fromLane="0" toLane="0"/>

    <connection from="-10585277#3" to="-10585277#2" fromLane="0" toLane="0"/>
    <connection from="-10585277#3" to="6402088#0" fromLane="0" toLane="0"/>
    <connection from="-10585277#3" to="10585277#3" fromLane="0" toLane="0"/>

    <connection from="-10585277#4" to="-10585277#3" fromLane="0" toLane="0"/>

    <connection from="-10608099" to="-10608099.5" fromLane="0" toLane="0"/>

    <connection from="-10608099.107" to="-10608099.120" fromLane="0" toLane="0"/>

    <connection from="-10608099.120" to="-10608099.149" fromLane="0" toLane="0"/>

    <connection from="-10608099.149" to="-10608099.173" fromLane="0" toLane="0"/>

    <connection from="-10608099.16" to="-10608099.107" fromLane="0" toLane="0"/>

    <connection from="-10608099.173" to="-10608099.198" fromLane="0" toLane="0"/>

    <connection from="-10608099.198" to="-10608099.225" fromLane="0" toLane="0"/>

    <connection from="-10608099.225" to="-10608099.310" fromLane="0" toLane="0"/>

    <connection from="-10608099.310" to="-10608099.322" fromLane="0" toLane="0"/>

    <connection from="-10608099.322" to="-10608099.335" fromLane="0" toLane="0"/>

    <connection from="-10608099.335" to="-10608099.344" fromLane="0" toLane="0"/>

    <connection from="-10608099.344" to="-10608099.354" fromLane="0" toLane="0"/>

    <connection from="-10608099.354" to="-10608099.368" fromLane="0" toLane="0"/>

    <connection from="-10608099.368" to="-10608099.379" fromLane="0" toLane="0"/>

    <connection from="-10608099.379" to="-10608099.390" fromLane="0" toLane="0"/>

    <connection from="-10608099.390" to="-10608099.396" fromLane="0" toLane="0"/>

    <connection from="-10608099.396" to="-10608099.404" fromLane="0" toLane="0"/>

    <connection from="-10608099.404" to="-10608099.409" fromLane="0" toLane="0"/>

    <connection from="-10608099.409" to="-10608099.414" fromLane="0" toLane="0"/>

    <connection from="-10608099.414" to="-10608099.422" fromLane="0" toLane="0"/>

    <connection from="-10608099.422" to="-10608099.435" fromLane="0" toLane="0"/>

    <connection from="-10608099.435" to="-10608099.448" fromLane="0" toLane="0"/>

    <connection from="-10608099.448" to="-10608099.462" fromLane="0" toLane="0"/>

    <connection from="-10608099.462" to="-10608099.475" fromLane="0" toLane="0"/>

    <connection from="-10608099.475" to="-10608099.498" fromLane="0" toLane="0"/>

    <connection from="-10608099.498" to="-10608099.506" fromLane="0" toLane="0"/>

    <connection from="-10608099.5" to="-10608099.16" fromLane="0" toLane="0"/>

    <connection from="-10608099.506" to="612214749" fromLane="0" toLane="0"/>
    <connection from="-10608099.506" to="10608099" fromLane="0" toLane="0"/>

    <connection from="-10608101" to="-10608101.6" fromLane="0" toLane="0"/>

    <connection from="-10608101.124" to="-10608101.128" fromLane="0" toLane="0"/>

    <connection from="-10608101.128" to="-10608101.132" fromLane="0" toLane="0"/>

    <connection from="-10608101.132" to="612214716#0" fromLane="0" toLane="0"/>
    <connection from="-10608101.132" to="10608101" fromLane="0" toLane="0"/>

    <connection from="-10608101.17" to="-10608101.31" fromLane="0" toLane="0"/>

    <connection from="-10608101.31" to="-10608101.40" fromLane="0" toLane="0"/>

    <connection from="-10608101.40" to="-10608101.124" fromLane="0" toLane="0"/>

    <connection from="-10608101.6" to="-10608101.17" fromLane="0" toLane="0"/>

    <connection from="-10619334#0" to="-10619334#0.23" fromLane="0" toLane="0"/>

    <connection from="-10619334#0.23" to="-10619334#0.25" fromLane="0" toLane="0"/>

    <connection from="-10619334#0.25" to="574055688#16" fromLane="0" toLane="0"/>
    <connection from="-10619334#0.25" to="-164659469#1" fromLane="0" toLane="0"/>
    <connection from="-10619334#0.25" to="-574055688#15" fromLane="0" toLane="0"/>
    <connection from="-10619334#0.25" to="10619334#0" fromLane="0" toLane="0"/>

    <connection from="-10619334#1" to="-10619334#0" fromLane="0" toLane="0"/>

    <connection from="-10619334#2" to="67300779#3" fromLane="0" toLane="0"/>
    <connection from="-10619334#2" to="-10619334#1" fromLane="0" toLane="0"/>
    <connection from="-10619334#2" to="-67300779#2" fromLane="0" toLane="0"/>
    <connection from="-10619334#2" to="10619334#2" fromLane="0" toLane="0"/>

    <connection from="-10619334#3" to="-10619340#1" fromLane="0" toLane="0"/>
    <connection from="-10619334#3" to="-10619334#2" fromLane="0" toLane="0"/>
    <connection from="-10619334#3" to="10619340#2" fromLane="0" toLane="0"/>
    <connection from="-10619334#3" to="10619334#3" fromLane="0" toLane="0"/>

    <connection from="-10619340#0" to="202485374#2" fromLane="0" toLane="0"/>
    <connection from="-10619340#0" to="-424282373" fromLane="0" toLane="0"/>
    <connection from="-10619340#0" to="10619340#0" fromLane="0" toLane="0"/>

    <connection from="-10619340#1" to="-10619340#1.6" fromLane="0" toLane="0"/>

    <connection from="-10619340#1.44" to="-10619340#0" fromLane="0" toLane="0"/>

    <connection from="-10619340#1.6" to="-10619340#1.44" fromLane="0" toLane="0"/>

    <connection from="-10619340#2" to="-10619340#2.5" fromLane="0" toLane="0"/>

    <connection from="-10619340#2.5" to="-10619340#2.74" fromLane="0" toLane="0"/>

    <connection from="-10619340#2.74" to="10619334#3" fromLane="0" toLane="0"/>
    <connection from="-10619340#2.74" to="-10619340#1" fromLane="0" toLane="0"/>
    <connection from="-10619340#2.74" to="-10619334#2" fromLane="0" toLane="0"/>
    <connection from="-10619340#2.74" to="10619340#2" fromLane="0" toLane="0"/>

    <connection from="-10619340#3" to="-10619340#3.3" fromLane="0" toLane="0"/>

    <connection from="-10619340#3.3" to="-10619340#3.4" fromLane="0" toLane="0"/>

    <connection from="-10619340#3.4" to="-10619340#3.57" fromLane="0" toLane="0"/>

    <connection from="-10619340#3.57" to="-10619340#2" fromLane="0" toLane="0"/>

    <connection from="-10620933#0" to="-10620933#0.15" fromLane="0" toLane="0"/>

    <connection from="-10620933#0.15" to="-10620935#1" fromLane="0" toLane="0"/>
    <connection from="-10620933#0.15" to="10620935#2" fromLane="0" toLane="0"/>
    <connection from="-10620933#0.15" to="10620933#0" fromLane="0" toLane="0"/>

    <connection from="-10620933#1" to="-10620933#0" fromLane="0" toLane="0"/>

    <connection from="-10620933#2" to="-10620933#1" fromLane="0" toLane="0"/>

    <connection from="-10620935#0" to="-10620935#0.40" fromLane="0" toLane="0"/>

    <connection from="-10620935#0.100" to="-10620935#0.121" fromLane="0" toLane="0"/>

    <connection from="-10620935#0.1005" to="-10620935#0.1040" fromLane="0" toLane="0"/>

    <connection from="-10620935#0.1040" to="-10620935#0.1053" fromLane="0" toLane="0"/>

    <connection from="-10620935#0.1053" to="10620935#0" fromLane="0" toLane="0"/>

    <connection from="-10620935#0.121" to="-10620935#0.150" fromLane="0" toLane="0"/>

    <connection from="-10620935#0.150" to="-10620935#0.191" fromLane="0" toLane="0"/>

    <connection from="-10620935#0.191" to="-10620935#0.200" fromLane="0" toLane="0"/>

    <connection from="-10620935#0.200" to="-10620935#0.210" fromLane="0" toLane="0"/>

    <connection from="-10620935#0.210" to="-10620935#0.252" fromLane="0" toLane="0"/>

    <connection from="-10620935#0.252" to="-10620935#0.301" fromLane="0" toLane="0"/>

    <connection from="-10620935#0.301" to="-10620935#0.332" fromLane="0" toLane="0"/>

    <connection from="-10620935#0.332" to="-10620935#0.354" fromLane="0" toLane="0"/>

    <connection from="-10620935#0.354" to="-10620935#0.397" fromLane="0" toLane="0"/>

    <connection from="-10620935#0.397" to="-10620935#0.402" fromLane="0" toLane="0"/>

    <connection from="-10620935#0.40" to="-10620935#0.100" fromLane="0" toLane="0"/>

    <connection from="-10620935#0.402" to="-10620935#0.424" fromLane="0" toLane="0"/>

    <connection from="-10620935#0.424" to="-10620935#0.456" fromLane="0" toLane="0"/>

    <connection from="-10620935#0.456" to="-10620935#0.489" fromLane="0" toLane="0"/>

    <connection from="-10620935#0.489" to="-10620935#0.497" fromLane="0" toLane="0"/>

    <connection from="-10620935#0.497" to="-10620935#0.539" fromLane="0" toLane="0"/>

    <connection from="-10620935#0.539" to="-10620935#0.563" fromLane="0" toLane="0"/>

    <connection from="-10620935#0.563" to="-10620935#0.582" fromLane="0" toLane="0"/>

    <connection from="-10620935#0.582" to="-10620935#0.628" fromLane="0" toLane="0"/>

    <connection from="-10620935#0.628" to="-10620935#0.685" fromLane="0" toLane="0"/>

    <connection from="-10620935#0.685" to="-10620935#0.714" fromLane="0" toLane="0"/>

    <connection from="-10620935#0.714" to="-10620935#0.744" fromLane="0" toLane="0"/>

    <connection from="-10620935#0.744" to="-10620935#0.792" fromLane="0" toLane="0"/>

    <connection from="-10620935#0.792" to="-10620935#0.803" fromLane="0" toLane="0"/>

    <connection from="-10620935#0.803" to="-10620935#0.857" fromLane="0" toLane="0"/>

    <connection from="-10620935#0.857" to="-10620935#0.903" fromLane="0" toLane="0"/>

    <connection from="-10620935#0.903" to="-10620935#0.943" fromLane="0" toLane="0"/>

    <connection from="-10620935#0.943" to="-10620935#0.1005" fromLane="0" toLane="0"/>

    <connection from="-10620935#1" to="-10620935#1.61" fromLane="0" toLane="0"/>

    <connection from="-10620935#1.61" to="-10620935#1.79" fromLane="0" toLane="0"/>

    <connection from="-10620935#1.79" to="-7710853" fromLane="0" toLane="0"/>
    <connection from="-10620935#1.79" to="-10620935#0" fromLane="0" toLane="0"/>
    <connection from="-10620935#1.79" to="10620935#1" fromLane="0" toLane="0"/>

    <connection from="-10620935#2" to="-10620935#2.8" fromLane="0" toLane="0"/>

    <connection from="-10620935#2.8" to="-10620935#2.81" fromLane="0" toLane="0"/>

    <connection from="-10620935#2.81" to="10620933#0" fromLane="0" toLane="0"/>
    <connection from="-10620935#2.81" to="-10620935#1" fromLane="0" toLane="0"/>
    <connection from="-10620935#2.81" to="10620935#2" fromLane="0" toLane="0"/>

    <connection from="-10627074#0" to="-10627074#0.86" fromLane="0" toLane="0"/>

    <connection from="-10627074#0.86" to="-437143000" fromLane="0" toLane="0"/>
    <connection from="-10627074#0.86" to="-6359476#3" fromLane="0" toLane="0"/>
    <connection from="-10627074#0.86" to="6374371" fromLane="0" toLane="0"/>
    <connection from="-10627074#0.86" to="10627074#0" fromLane="0" toLane="0"/>

    <connection from="-10627074#1" to="-10627074#0" fromLane="0" toLane="0"/>

    <connection from="-10723756#0" to="196739917#4" fromLane="0" toLane="0"/>
    <connection from="-10723756#0" to="202317698#1" fromLane="0" toLane="0"/>
    <connection from="-10723756#0" to="10723756#0" fromLane="0" toLane="0"/>

    <connection from="-10723756#1" to="-10723756#1.80" fromLane="0" toLane="0"/>

    <connection from="-10723756#1.80" to="-10723756#1.91" fromLane="0" toLane="0"/>

    <connection from="-10723756#1.91" to="-10723756#0" fromLane="0" toLane="0"/>

    <connection from="-10723756#2" to="-10723756#1" fromLane="0" toLane="0"/>

    <connection from="-10723756#3" to="-10723756#3.6" fromLane="0" toLane="0"/>

    <connection from="-10723756#3.6" to="-10723756#2" fromLane="0" toLane="0"/>

    <connection from="-10723756#4" to="-10723756#4.68" fromLane="0" toLane="0"/>

    <connection from="-10723756#4.68" to="-10723756#4.71" fromLane="0" toLane="0"/>

    <connection from="-10723756#4.71" to="-6372435#3" fromLane="0" toLane="0"/>
    <connection from="-10723756#4.71" to="-10723756#3" fromLane="0" toLane="0"/>
    <connection from="-10723756#4.71" to="6372435#4" fromLane="0" toLane="0"/>
    <connection from="-10723756#4.71" to="10723756#4" fromLane="0" toLane="0"/>

    <connection from="-10723756#5" to="-10723756#5.9" fromLane="0" toLane="0"/>

    <connection from="-10723756#5.9" to="-10723756#4" fromLane="0" toLane="0"/>
    <connection from="-10723756#5.9" to="-6404960" fromLane="0" toLane="0"/>
    <connection from="-10723756#5.9" to="10723756#5" fromLane="0" toLane="0"/>

    <connection from="-10723756#6" to="-10723756#6.13" fromLane="0" toLane="0"/>

    <connection from="-10723756#6.13" to="-10723756#6.28" fromLane="0" toLane="0"/>

    <connection from="-10723756#6.160" to="421385008#0" fromLane="0" toLane="0"/>
    <connection from="-10723756#6.160" to="-10723756#5" fromLane="0" toLane="0"/>
    <connection from="-10723756#6.160" to="-638619838" fromLane="0" toLane="0"/>
    <connection from="-10723756#6.160" to="10723756#6" fromLane="0" toLane="0"/>

    <connection from="-10723756#6.28" to="-10723756#6.160" fromLane="0" toLane="0"/>

    <connection from="-10906601" to="-10906601.5" fromLane="0" toLane="0"/>

    <connection from="-10906601.22" to="10906601" fromLane="0" toLane="0"/>

    <connection from="-10906601.5" to="-10906601.22" fromLane="0" toLane="0"/>

    <connection from="-10906602#0" to="-10906602#0.29" fromLane="0" toLane="0"/>

    <connection from="-10906602#0.29" to="-10906602#0.68" fromLane="0" toLane="0"/>

    <connection from="-10906602#0.68" to="-10906602#0.70" fromLane="0" toLane="0"/>

    <connection from="-10906602#0.70" to="10906602#0" fromLane="0" toLane="0"/>

    <connection from="-10906602#1" to="-10906602#0" fromLane="0" toLane="0"/>

    <connection from="-10906602#2" to="-10906602#1" fromLane="0" toLane="0"/>

    <connection from="-10906602#3" to="-10906602#2" fromLane="0" toLane="0"/>

    <connection from="-10906602#4" to="-10906602#4.7" fromLane="0" toLane="0"/>

    <connection from="-10906602#4.7" to="-10906602#3" fromLane="0" toLane="0"/>

    <connection from="-10906602#5" to="-10906602#5.53" fromLane="0" toLane="0"/>

    <connection from="-10906602#5.53" to="-10906602#5.55" fromLane="0" toLane="0"/>

    <connection from="-10906602#5.55" to="189141430#0" fromLane="0" toLane="0"/>
    <connection from="-10906602#5.55" to="-10906602#4" fromLane="0" toLane="0"/>
    <connection from="-10906602#5.55" to="-189141432#1" fromLane="0" toLane="0"/>
    <connection from="-10906602#5.55" to="10906602#5" fromLane="0" toLane="0"/>

    <connection from="-10906602#6" to="-10906602#5" fromLane="0" toLane="0"/>

    <connection from="-10906602#7" to="-10906602#6" fromLane="0" toLane="0"/>

    <connection from="-10906602#8" to="-10906602#7" fromLane="0" toLane="0"/>

    <connection from="-10906602#9" to="-10906602#8" fromLane="0" toLane="0"/>

    <connection from="-10908237#0" to="-10908237#0.141" fromLane="0" toLane="0"/>

    <connection from="-10908237#0.141" to="6377365#0" fromLane="0" toLane="0"/>
    <connection from="-10908237#0.141" to="-422162302" fromLane="0" toLane="0"/>
    <connection from="-10908237#0.141" to="10908237#0" fromLane="0" toLane="0"/>

    <connection from="-10908237#1" to="-10908237#0" fromLane="0" toLane="0"/>

    <connection from="-10908237#2" to="-10908237#1" fromLane="0" toLane="0"/>

    <connection from="-109187425#0" to="-109187425#0.7" fromLane="0" toLane="0"/>

    <connection from="-109187425#0.7" to="-109187427" fromLane="0" toLane="0"/>

    <connection from="-109187425#1" to="-109187425#1.7" fromLane="0" toLane="0"/>

    <connection from="-109187425#1.22" to="-109187425#0" fromLane="0" toLane="0"/>

    <connection from="-109187425#1.7" to="-109187425#1.22" fromLane="0" toLane="0"/>

    <connection from="-109187425#2" to="-109187425#2.18" fromLane="0" toLane="0"/>

    <connection from="-109187425#2.18" to="-109187425#1" fromLane="0" toLane="0"/>

    <connection from="-109187425#3" to="-109187425#2" fromLane="0" toLane="0"/>

    <connection from="-109187425#4" to="-109187425#4.8" fromLane="0" toLane="0"/>

    <connection from="-109187425#4.8" to="-109187425#3" fromLane="0" toLane="0"/>

    <connection from="-109187425#5" to="-109187425#4" fromLane="0" toLane="0"/>

    <connection from="-109187427" to="-234529334#2" fromLane="0" toLane="0"/>

    <connection from="-11043363#0" to="-194872395#4" fromLane="0" toLane="0"/>
    <connection from="-11043363#0" to="7857575#0" fromLane="0" toLane="0"/>
    <connection from="-11043363#0" to="11043363#0" fromLane="0" toLane="0"/>

    <connection from="-11043363#1" to="6361146#0" fromLane="0" toLane="0"/>
    <connection from="-11043363#1" to="-11043363#0" fromLane="0" toLane="0"/>
    <connection from="-11043363#1" to="11043363#1" fromLane="0" toLane="0"/>

    <connection from="-11043363#2" to="-11043363#1" fromLane="0" toLane="0"/>
    <connection from="-11043363#2" to="-282941001" fromLane="0" toLane="0"/>
    <connection from="-11043363#2" to="11043363#2" fromLane="0" toLane="0"/>

    <connection from="-11043363#3" to="-11043363#3.7" fromLane="0" toLane="0"/>

    <connection from="-11043363#3.7" to="-11043363#2" fromLane="0" toLane="0"/>

    <connection from="-11043363#4" to="-11043363#4.9" fromLane="0" toLane="0"/>
