<?xml version="1.0" encoding="UTF-8"?>

<!-- generated on Sat Jan  1 05:08:39 2022 by Eclipse SUMO netconvert Version 1.8.0
<configuration xmlns:xsi="http://www.w3.org/2001/XMLSchema-instance" xsi:noNamespaceSchemaLocation="http://sumo.dlr.de/xsd/netconvertConfiguration.xsd">

    <input>
        <sumo-net-file value="berkeley.net.xml"/>
    </input>

    <output>
        <plain-output-prefix value="temp"/>
    </output>

    <processing>
        <geometry.min-radius.fix.railways value="false"/>
        <geometry.max-grade.fix value="false"/>
        <offset.disable-normalization value="true"/>
        <lefthand value="false"/>
    </processing>

    <junctions>
        <no-turnarounds value="true"/>
        <junctions.corner-detail value="5"/>
        <junctions.limit-turn-speed value="5.5"/>
        <rectangular-lane-cut value="false"/>
    </junctions>

    <pedestrian>
        <walkingareas value="false"/>
    </pedestrian>

    <report>
        <aggregate-warnings value="5"/>
    </report>

</configuration>
-->

<nodes version="1.6" xmlns:xsi="http://www.w3.org/2001/XMLSchema-instance" xsi:noNamespaceSchemaLocation="http://sumo.dlr.de/xsd/nodes_file.xsd">
    <location netOffset="-559821.72,-4188032.55" convBoundary="0.00,0.00,7577.92,7732.86" origBoundary="-122.324652,37.834820,-122.200116,37.907120" projParameter="+proj=utm +zone=10 +ellps=WGS84 +datum=WGS84 +units=m +no_defs"/>

    <node id="-1000613220#0.29" x="5724.63" y="4222.59" type="priority"/>
    <node id="-1000613220#0.54" x="5702.78" y="4235.14" type="priority"/>
    <node id="-1000613220#0.72" x="5685.50" y="4242.12" type="priority"/>
    <node id="-1000720853#1.19" x="4637.44" y="2335.36" type="priority"/>
    <node id="-1000720853#7.3" x="4900.20" y="2379.77" type="priority"/>
    <node id="-1014203284#0.1" x="3298.04" y="4144.50" type="priority"/>
    <node id="-1014203284#3.191" x="3482.18" y="4175.74" type="priority"/>
    <node id="-1014203284#3.2" x="3667.94" y="4205.92" type="priority"/>
    <node id="-1014203284#3.5" x="3665.43" y="4206.34" type="priority"/>
    <node id="-10281580.8" x="1393.49" y="4675.63" type="priority"/>
    <node id="-10281582#1.7" x="1368.49" y="4772.85" type="priority"/>
    <node id="-10281582#2.7" x="1460.93" y="4797.53" type="priority"/>
    <node id="-10281582#2.87" x="1382.97" y="4776.65" type="priority"/>
    <node id="-10284131#10.9" x="1981.72" y="4377.21" type="priority"/>
    <node id="-10284131#11.91" x="1999.43" y="4381.90" type="priority"/>
    <node id="-10284131#2.7" x="1505.73" y="4252.13" type="priority"/>
    <node id="-10284131#3.56" x="1519.38" y="4255.76" type="priority"/>
    <node id="-10284131#7.11" x="1784.73" y="4325.11" type="priority"/>
    <node id="-10284131#8.39" x="1806.66" y="4330.86" type="priority"/>
    <node id="-10284131#9.7" x="1886.27" y="4351.97" type="priority"/>
    <node id="-10284134.7" x="1539.89" y="4122.70" type="priority"/>
    <node id="-10376538#0.22" x="5478.06" y="1830.61" type="priority"/>
    <node id="-10376538#0.83" x="5418.34" y="1820.45" type="priority"/>
    <node id="-10376538#2.7" x="5595.96" y="1851.25" type="priority"/>
    <node id="-10377674.283" x="5568.06" y="1488.12" type="priority"/>
    <node id="-10377674.284" x="5568.27" y="1486.93" type="priority"/>
    <node id="-10377674.7" x="5520.28" y="1759.83" type="priority"/>
    <node id="-10585275#0.30" x="5841.00" y="2338.92" type="priority"/>
    <node id="-10585275#0.8" x="5862.99" y="2342.81" type="priority"/>
    <node id="-10585275#1.28" x="5880.55" y="2345.08" type="priority"/>
    <node id="-10585275#3.3" x="6045.13" y="2359.02" type="priority"/>
    <node id="-10585275#3.79" x="5969.55" y="2352.33" type="priority"/>
    <node id="-10585277#0.48" x="6096.98" y="2363.56" type="priority"/>
    <node id="-10585277#0.51" x="6093.74" y="2362.83" type="priority"/>
    <node id="-10585277#0.54" x="6090.83" y="2361.77" type="priority"/>
    <node id="-10608099.107" x="7518.72" y="2120.56" type="priority"/>
    <node id="-10608099.120" x="7509.23" y="2112.13" type="priority"/>
    <node id="-10608099.149" x="7487.33" y="2092.69" type="priority"/>
    <node id="-10608099.16" x="7572.38" y="2194.90" type="priority"/>
    <node id="-10608099.173" x="7471.43" y="2074.93" type="priority"/>
    <node id="-10608099.198" x="7458.98" y="2052.86" type="priority"/>
    <node id="-10608099.225" x="7449.63" y="2028.46" type="priority"/>
    <node id="-10608099.310" x="7428.71" y="1946.05" type="priority"/>
    <node id="-10608099.322" x="7428.93" y="1933.83" type="priority"/>
    <node id="-10608099.335" x="7431.04" y="1920.69" type="priority"/>
    <node id="-10608099.344" x="7434.88" y="1912.25" type="priority"/>
    <node id="-10608099.354" x="7440.49" y="1904.67" type="priority"/>
    <node id="-10608099.368" x="7450.37" y="1894.65" type="priority"/>
    <node id="-10608099.379" x="7460.57" y="1889.26" type="priority"/>
    <node id="-10608099.390" x="7470.15" y="1885.06" type="priority"/>
    <node id="-10608099.396" x="7475.22" y="1880.92" type="priority"/>
    <node id="-10608099.404" x="7478.31" y="1874.17" type="priority"/>
    <node id="-10608099.409" x="7478.54" y="1869.15" type="priority"/>
    <node id="-10608099.414" x="7477.64" y="1864.56" type="priority"/>
    <node id="-10608099.422" x="7473.21" y="1857.00" type="priority"/>
    <node id="-10608099.435" x="7462.16" y="1851.97" type="priority"/>
    <node id="-10608099.448" x="7448.74" y="1848.58" type="priority"/>
    <node id="-10608099.462" x="7436.39" y="1843.89" type="priority"/>
    <node id="-10608099.475" x="7424.76" y="1837.33" type="priority"/>
    <node id="-10608099.498" x="7408.30" y="1820.66" type="priority"/>
    <node id="-10608099.5" x="7577.49" y="2204.34" type="priority"/>
    <node id="-10608099.506" x="7402.46" y="1816.51" type="priority"/>
    <node id="-10608101.124" x="7169.87" y="2015.29" type="priority"/>
    <node id="-10608101.128" x="7169.90" y="2011.50" type="priority"/>
    <node id="-10608101.132" x="7169.17" y="2007.71" type="priority"/>
    <node id="-10608101.17" x="7152.14" y="2120.27" type="priority"/>
    <node id="-10608101.31" x="7158.45" y="2107.67" type="priority"/>
    <node id="-10608101.40" x="7160.93" y="2098.94" type="priority"/>
    <node id="-10608101.6" x="7149.57" y="2131.05" type="priority"/>
    <node id="-10619334#0.23" x="4090.55" y="1208.06" type="priority"/>
    <node id="-10619334#0.25" x="4089.45" y="1209.95" type="priority"/>
    <node id="-10619340#1.44" x="4165.62" y="1027.28" type="priority"/>
    <node id="-10619340#1.6" x="4128.56" y="1020.87" type="priority"/>
    <node id="-10619340#2.5" x="4046.32" y="1006.54" type="priority"/>
    <node id="-10619340#2.74" x="4114.43" y="1018.42" type="priority"/>
    <node id="-10619340#3.3" x="3931.92" y="986.96" type="priority"/>
    <node id="-10619340#3.4" x="3933.43" y="987.25" type="priority"/>
    <node id="-10619340#3.57" x="3985.07" y="995.82" type="priority"/>
    <node id="-10620933#0.15" x="4401.24" y="1169.87" type="priority"/>
    <node id="-10620935#0.100" x="4532.09" y="989.01" type="priority"/>
    <node id="-10620935#0.1005" x="4687.14" y="97.66" type="priority"/>
    <node id="-10620935#0.1040" x="4692.93" y="63.13" type="priority"/>
    <node id="-10620935#0.1053" x="4695.16" y="49.79" type="priority"/>
    <node id="-10620935#0.121" x="4535.74" y="967.70" type="priority"/>
    <node id="-10620935#0.150" x="4540.61" y="939.67" type="priority"/>
    <node id="-10620935#0.191" x="4547.69" y="898.93" type="priority"/>
    <node id="-10620935#0.200" x="4550.06" y="890.28" type="priority"/>
    <node id="-10620935#0.210" x="4552.79" y="880.28" type="priority"/>
    <node id="-10620935#0.252" x="4559.81" y="839.72" type="priority"/>
    <node id="-10620935#0.301" x="4568.42" y="791.03" type="priority"/>
    <node id="-10620935#0.332" x="4573.54" y="760.49" type="priority"/>
    <node id="-10620935#0.354" x="4577.33" y="738.52" type="priority"/>
    <node id="-10620935#0.397" x="4584.62" y="696.46" type="priority"/>
    <node id="-10620935#0.40" x="4521.58" y="1048.00" type="priority"/>
    <node id="-10620935#0.402" x="4585.45" y="691.65" type="priority"/>
    <node id="-10620935#0.424" x="4589.13" y="670.38" type="priority"/>
    <node id="-10620935#0.456" x="4594.62" y="638.68" type="priority"/>
    <node id="-10620935#0.489" x="4600.36" y="605.52" type="priority"/>
    <node id="-10620935#0.497" x="4601.61" y="598.32" type="priority"/>
    <node id="-10620935#0.539" x="4608.89" y="556.29" type="priority"/>
    <node id="-10620935#0.563" x="4612.85" y="533.40" type="priority"/>
    <node id="-10620935#0.582" x="4616.21" y="513.99" type="priority"/>
    <node id="-10620935#0.628" x="4624.00" y="468.94" type="priority"/>
    <node id="-10620935#0.685" x="4633.80" y="412.35" type="priority"/>
    <node id="-10620935#0.714" x="4638.65" y="384.38" type="priority"/>
    <node id="-10620935#0.744" x="4643.88" y="354.17" type="priority"/>
    <node id="-10620935#0.792" x="4651.96" y="307.47" type="priority"/>
    <node id="-10620935#0.803" x="4653.88" y="296.04" type="priority"/>
    <node id="-10620935#0.857" x="4662.75" y="243.10" type="priority"/>
    <node id="-10620935#0.903" x="4670.40" y="197.88" type="priority"/>
    <node id="-10620935#0.943" x="4676.98" y="158.26" type="priority"/>
    <node id="-10620935#1.61" x="4508.11" y="1126.74" type="priority"/>
    <node id="-10620935#1.79" x="4511.30" y="1108.36" type="priority"/>
    <node id="-10620935#2.8" x="4481.81" y="1278.05" type="priority"/>
    <node id="-10620935#2.81" x="4494.32" y="1206.05" type="priority"/>
    <node id="-10627074#0.86" x="6868.47" y="1703.73" type="priority"/>
    <node id="-10723756#1.80" x="4420.86" y="1605.07" type="priority"/>
    <node id="-10723756#1.91" x="4409.62" y="1603.94" type="priority"/>
    <node id="-10723756#3.6" x="4567.25" y="1629.74" type="priority"/>
    <node id="-10723756#4.68" x="4584.55" y="1631.52" type="priority"/>
    <node id="-10723756#4.71" x="4580.62" y="1630.88" type="priority"/>
    <node id="-10723756#5.9" x="4730.29" y="1656.66" type="priority"/>
    <node id="-10723756#6.13" x="4891.81" y="1683.32" type="priority"/>
    <node id="-10723756#6.160" x="4746.89" y="1659.51" type="priority"/>
    <node id="-10723756#6.28" x="4876.51" y="1682.30" type="priority"/>
    <node id="-10906601.22" x="1713.60" y="5039.22" type="priority"/>
    <node id="-10906601.5" x="1718.06" y="5022.97" type="priority"/>
    <node id="-10906602#0.29" x="1528.11" y="4987.31" type="priority"/>
    <node id="-10906602#0.68" x="1517.67" y="5025.59" type="priority"/>
    <node id="-10906602#0.70" x="1517.15" y="5027.51" type="priority"/>
    <node id="-10906602#4.7" x="1567.19" y="4833.73" type="priority"/>
    <node id="-10906602#5.53" x="1569.68" y="4817.61" type="priority"/>
    <node id="-10906602#5.55" x="1569.54" y="4819.55" type="priority"/>
    <node id="-10908237#0.141" x="1564.21" y="3108.27" type="priority"/>
    <node id="-109187425#0.7" x="5116.20" y="3911.97" type="priority"/>
    <node id="-109187425#1.22" x="5134.57" y="3918.17" type="priority"/>
    <node id="-109187425#1.7" x="5145.57" y="3928.63" type="priority"/>
    <node id="-109187425#2.18" x="5160.03" y="3946.09" type="priority"/>
    <node id="-109187425#4.8" x="5194.96" y="3971.85" type="priority"/>
    <node id="-11043363#3.7" x="5069.91" y="6785.41" type="priority"/>
    <node id="-11043363#4.16" x="5056.59" y="6747.18" type="priority"/>
    <node id="-11043363#4.34" x="5059.10" y="6765.17" type="priority"/>
    <node id="-11043363#4.41" x="5061.70" y="6771.58" type="priority"/>
    <node id="-11043363#4.9" x="5053.51" y="6740.27" type="priority"/>
    <node id="-11043364#0.73" x="4473.39" y="7372.42" type="priority"/>
    <node id="-11043364#0.81" x="4468.56" y="7379.06" type="priority"/>
    <node id="-11043364#6.18" x="4864.53" y="7095.84" type="priority"/>
    <node id="-11043364#6.82" x="4816.80" y="7139.63" type="priority"/>
    <node id="-11043364#7.144" x="4956.89" y="7001.70" type="priority"/>
    <node id="-11148175#0.7" x="4155.83" y="7386.46" type="priority"/>
    <node id="-11148175#1.105" x="4199.57" y="7361.82" type="priority"/>
    <node id="-11148175#1.116" x="4192.50" y="7369.58" type="priority"/>
    <node id="-11148175#1.12" x="4198.54" y="7270.62" type="priority"/>
    <node id="-11148175#1.22" x="4196.08" y="7280.86" type="priority"/>
    <node id="-11148175#1.32" x="4196.58" y="7290.53" type="priority"/>
    <node id="-11148175#1.68" x="4203.77" y="7325.80" type="priority"/>
    <node id="-11148175#1.83" x="4205.30" y="7340.72" type="priority"/>
    <node id="-11148175#1.96" x="4203.68" y="7353.39" type="priority"/>
    <node id="-11152046#0.102" x="3950.14" y="6445.11" type="priority"/>
    <node id="-11152046#0.107" x="3950.13" y="6439.63" type="priority"/>
    <node id="-11152046#0.11" x="3952.93" y="6523.07" type="priority"/>
    <node id="-11152046#0.121" x="3948.34" y="6426.46" type="priority"/>
    <node id="-11152046#0.127" x="3949.14" y="6419.72" type="priority"/>
    <node id="-11152046#0.134" x="3951.18" y="6413.33" type="priority"/>
    <node id="-11152046#0.169" x="3974.63" y="6387.65" type="priority"/>
    <node id="-11152046#0.187" x="3986.16" y="6373.98" type="priority"/>
    <node id="-11152046#0.214" x="4002.56" y="6352.10" type="priority"/>
    <node id="-11152046#0.220" x="4004.25" y="6346.77" type="priority"/>
    <node id="-11152046#0.23" x="3942.68" y="6517.43" type="priority"/>
    <node id="-11152046#0.32" x="3935.72" y="6511.31" type="priority"/>
    <node id="-11152046#0.37" x="3933.32" y="6507.20" type="priority"/>
    <node id="-11152046#0.42" x="3932.45" y="6502.26" type="priority"/>
    <node id="-11152046#0.48" x="3933.75" y="6495.83" type="priority"/>
    <node id="-11152046#0.5" x="3958.34" y="6526.66" type="priority"/>
    <node id="-11152046#0.58" x="3935.62" y="6486.72" type="priority"/>
    <node id="-11152046#0.85" x="3946.22" y="6461.35" type="priority"/>
    <node id="-11152046#0.94" x="3948.96" y="6453.34" type="priority"/>
    <node id="-11152046#1.10" x="3963.86" y="6552.12" type="priority"/>
    <node id="-11152046#1.22" x="3964.21" y="6540.87" type="priority"/>
    <node id="-11152046#1.31" x="3962.79" y="6532.11" type="priority"/>
    <node id="-11152046#2.21" x="3984.63" y="6590.89" type="priority"/>
    <node id="-11152046#2.27" x="3978.48" y="6592.60" type="priority"/>
    <node id="-11152046#2.32" x="3972.93" y="6592.74" type="priority"/>
    <node id="-11152046#2.38" x="3967.97" y="6590.83" type="priority"/>
    <node id="-11152046#2.43" x="3963.81" y="6587.12" type="priority"/>
    <node id="-11152046#2.51" x="3962.13" y="6579.72" type="priority"/>
    <node id="-11152046#3.23" x="4085.67" y="6545.99" type="priority"/>
    <node id="-11152046#3.3" x="4102.77" y="6536.20" type="priority"/>
    <node id="-11152046#3.31" x="4077.76" y="6549.23" type="priority"/>
    <node id="-11152046#3.47" x="4062.16" y="6552.83" type="priority"/>
    <node id="-11152046#3.56" x="4053.62" y="6556.49" type="priority"/>
    <node id="-11152046#3.94" x="4021.08" y="6575.87" type="priority"/>
    <node id="-11152046#4.54" x="4132.45" y="6568.76" type="priority"/>
    <node id="-11152046#4.84" x="4121.89" y="6540.87" type="priority"/>
    <node id="-11152046#4.91" x="4117.00" y="6535.89" type="priority"/>
    <node id="-11152046#4.95" x="4112.80" y="6534.88" type="priority"/>
    <node id="-11154778.63" x="3689.90" y="7250.96" type="priority"/>
    <node id="-11154779#0.100" x="3895.85" y="7028.52" type="priority"/>
    <node id="-11154779#0.129" x="3871.19" y="7044.36" type="priority"/>
    <node id="-11154779#0.155" x="3848.81" y="7056.78" type="priority"/>
    <node id="-11154779#0.29" x="3945.30" y="6977.38" type="priority"/>
    <node id="-11154779#0.48" x="3933.08" y="6992.58" type="priority"/>
    <node id="-11154779#0.75" x="3914.14" y="7012.08" type="priority"/>
    <node id="-11154779#3.53" x="4161.37" y="6760.60" type="priority"/>
    <node id="-11154779#3.74" x="4151.88" y="6779.52" type="priority"/>
    <node id="-11154779#3.86" x="4145.89" y="6789.95" type="priority"/>
    <node id="-11154779#4.13" x="4193.72" y="6695.37" type="priority"/>
    <node id="-11154779#5.104" x="4211.96" y="6677.95" type="priority"/>
    <node id="-11154779#5.12" x="4287.90" y="6628.13" type="priority"/>
    <node id="-11154779#5.18" x="4285.13" y="6633.28" type="priority"/>
    <node id="-11154779#5.25" x="4279.90" y="6638.07" type="priority"/>
    <node id="-11154779#6.15" x="4308.86" y="6527.29" type="priority"/>
    <node id="-11154779#6.29" x="4312.63" y="6540.52" type="priority"/>
    <node id="-11154779#6.38" x="4313.56" y="6549.84" type="priority"/>
    <node id="-11154779#6.48" x="4312.76" y="6559.31" type="priority"/>
    <node id="-11154779#6.59" x="4310.31" y="6569.82" type="priority"/>
    <node id="-11154779#6.83" x="4299.95" y="6591.86" type="priority"/>
    <node id="-11154779#6.93" x="4296.17" y="6600.56" type="priority"/>
    <node id="-11154779#7.111" x="4417.68" y="6242.86" type="priority"/>
    <node id="-11154779#7.164" x="4393.36" y="6289.32" type="priority"/>
    <node id="-11154779#7.242" x="4360.61" y="6360.93" type="priority"/>
    <node id="-11154779#7.257" x="4352.30" y="6373.30" type="priority"/>
    <node id="-11154779#7.274" x="4339.29" y="6384.50" type="priority"/>
    <node id="-11154779#7.289" x="4326.74" y="6391.24" type="priority"/>
    <node id="-11154779#7.297" x="4318.73" y="6394.12" type="priority"/>
    <node id="-11154779#7.309" x="4308.66" y="6400.02" type="priority"/>
    <node id="-11154779#7.321" x="4299.75" y="6408.78" type="priority"/>
    <node id="-11154779#7.330" x="4294.77" y="6415.98" type="priority"/>
    <node id="-11154779#7.340" x="4290.69" y="6425.20" type="priority"/>
    <node id="-11154779#7.353" x="4287.00" y="6437.71" type="priority"/>
    <node id="-11154779#7.367" x="4284.83" y="6451.82" type="priority"/>
    <node id="-11154779#7.381" x="4285.47" y="6465.66" type="priority"/>
    <node id="-11154779#7.397" x="4288.34" y="6481.40" type="priority"/>
    <node id="-11154779#7.422" x="4296.89" y="6504.15" type="priority"/>
    <node id="-11154779#8.12" x="4487.00" y="6132.30" type="priority"/>
    <node id="-11154779#8.6" x="4492.09" y="6127.77" type="priority"/>
    <node id="-11154779#9.117" x="4526.13" y="6106.64" type="priority"/>
    <node id="-11154779#9.12" x="4607.90" y="6041.42" type="priority"/>
    <node id="-11154779#9.13" x="4606.58" y="6042.33" type="priority"/>
    <node id="-11154779#9.139" x="4506.61" y="6116.70" type="priority"/>
    <node id="-11154779#9.29" x="4595.55" y="6053.65" type="priority"/>
    <node id="-11154779#9.62" x="4572.42" y="6077.16" type="priority"/>
    <node id="-11154779#9.78" x="4559.94" y="6086.72" type="priority"/>
    <node id="-11162457.169" x="2461.78" y="1216.22" type="priority"/>
    <node id="-11162457.203" x="2453.20" y="1248.41" type="priority"/>
    <node id="-11162457.220" x="2448.27" y="1265.08" type="priority"/>
    <node id="-11162457.223" x="2447.33" y="1268.27" type="priority"/>
    <node id="-11162457.261" x="2436.59" y="1304.64" type="priority"/>
    <node id="-11162457.269" x="2435.08" y="1312.65" type="priority"/>
    <node id="-11162457.276" x="2434.16" y="1319.16" type="priority"/>
    <node id="-11162457.85" x="2483.56" y="1134.54" type="priority"/>
    <node id="-11306949#0.36" x="5648.39" y="6372.72" type="priority"/>
    <node id="-11306949#1.18" x="5766.01" y="6389.95" type="priority"/>
    <node id="-11306949#1.29" x="5756.76" y="6396.74" type="priority"/>
    <node id="-11306949#1.48" x="5739.34" y="6403.51" type="priority"/>
    <node id="-11306949#1.63" x="5724.73" y="6404.57" type="priority"/>
    <node id="-11306949#1.82" x="5705.62" y="6401.56" type="priority"/>
    <node id="-11306949#1.9" x="5771.32" y="6383.42" type="priority"/>
    <node id="-11306949#2.13" x="5784.39" y="6326.74" type="priority"/>
    <node id="-11306949#2.27" x="5786.28" y="6340.50" type="priority"/>
    <node id="-11306949#2.40" x="5785.70" y="6353.52" type="priority"/>
    <node id="-11306949#2.50" x="5783.15" y="6363.13" type="priority"/>
    <node id="-11306949#4.35" x="5771.82" y="6305.16" type="priority"/>
    <node id="-113629978#0.107" x="2937.61" y="4541.72" type="priority"/>
    <node id="-113629978#0.128" x="2918.61" y="4533.29" type="priority"/>
    <node id="-113629978#0.146" x="2901.15" y="4526.86" type="priority"/>
    <node id="-113629978#0.7" x="3024.27" y="4590.80" type="priority"/>
    <node id="-113629978#0.88" x="2953.89" y="4550.61" type="priority"/>
    <node id="-113629978#1.212" x="3037.00" y="4598.03" type="priority"/>
    <node id="-113629978#1.7" x="3214.51" y="4699.90" type="priority"/>
    <node id="-113629978#2.67" x="3229.10" y="4706.40" type="priority"/>
    <node id="-113629978#3.7" x="3348.65" y="4781.38" type="priority"/>
    <node id="-128467230#0.39" x="6250.73" y="2874.51" type="priority"/>
    <node id="-128467230#0.47" x="6256.72" y="2879.82" type="priority"/>
    <node id="-128467230#0.55" x="6264.26" y="2882.88" type="priority"/>
    <node id="-128467230#0.91" x="6299.78" y="2877.91" type="priority"/>
    <node id="-16260976#0.43" x="5289.50" y="1811.30" type="priority"/>
    <node id="-16260976#0.45" x="5287.38" y="1811.32" type="priority"/>
    <node id="-16260976#1.6" x="5403.26" y="1830.79" type="priority"/>
    <node id="-164658208#0.117" x="3092.71" y="3893.43" type="priority"/>
    <node id="-164658208#0.119" x="3093.11" y="3896.19" type="priority"/>
    <node id="-164658208#0.7" x="3105.98" y="3784.44" type="priority"/>
    <node id="-164658208#1.72" x="3107.86" y="3769.92" type="priority"/>
    <node id="-164658208#10.22" x="3146.69" y="3446.24" type="priority"/>
    <node id="-164658208#10.68" x="3142.53" y="3492.51" type="priority"/>
    <node id="-164658208#10.75" x="3142.18" y="3499.08" type="priority"/>
    <node id="-164658208#11.30" x="3153.10" y="3374.90" type="priority"/>
    <node id="-164658208#12.7" x="3161.35" y="3284.32" type="priority"/>
    <node id="-164658208#13.57" x="3162.67" y="3270.46" type="priority"/>
    <node id="-164658208#17.102" x="3206.47" y="3008.81" type="priority"/>
    <node id="-164658208#17.114" x="3203.18" y="3020.83" type="priority"/>
    <node id="-164658208#17.132" x="3196.41" y="3037.31" type="priority"/>
    <node id="-164658208#17.151" x="3187.46" y="3053.96" type="priority"/>
    <node id="-164658208#17.163" x="3182.95" y="3065.17" type="priority"/>
    <node id="-164658208#17.169" x="3181.11" y="3070.92" type="priority"/>
    <node id="-164658208#17.174" x="3180.34" y="3075.84" type="priority"/>
    <node id="-164658208#17.7" x="3221.72" y="2915.29" type="priority"/>
    <node id="-164658208#17.9" x="3221.50" y="2917.11" type="priority"/>
    <node id="-164658208#18.192" x="3223.55" y="2898.91" type="priority"/>
    <node id="-164658208#18.194" x="3223.33" y="2900.89" type="priority"/>
    <node id="-164658208#18.8" x="3240.08" y="2715.84" type="priority"/>
    <node id="-164658208#9.14" x="3141.27" y="3520.14" type="priority"/>
    <node id="-164658208#9.7" x="3142.48" y="3512.83" type="priority"/>
    <node id="-164658212#0.85" x="4520.25" y="4963.84" type="priority"/>
    <node id="-164658213#0.113" x="4513.89" y="4955.67" type="priority"/>
    <node id="-164658213#10.55" x="4585.37" y="4213.85" type="priority"/>
    <node id="-164658213#11.10" x="4599.44" y="4067.00" type="priority"/>
    <node id="-164658213#11.12" x="4599.26" y="4068.69" type="priority"/>
    <node id="-164658213#4.36" x="4533.46" y="4754.14" type="priority"/>
    <node id="-164658213#5.7" x="4551.54" y="4567.96" type="priority"/>
    <node id="-164658213#6.156" x="4551.86" y="4551.96" type="priority"/>
    <node id="-164659427#0.7" x="2364.41" y="3325.78" type="priority"/>
    <node id="-164659427#0.90" x="2283.18" y="3304.76" type="priority"/>
    <node id="-164659427#1.51" x="2378.25" y="3329.37" type="priority"/>
    <node id="-164659428#0.7" x="2406.14" y="3166.23" type="priority"/>
    <node id="-164659428#0.90" x="2325.32" y="3144.57" type="priority"/>
    <node id="-164659428#1.85" x="2420.30" y="3169.94" type="priority"/>
    <node id="-164659428#11.40" x="2903.89" y="3261.88" type="priority"/>
    <node id="-164659428#8.84" x="2632.15" y="3215.56" type="priority"/>
    <node id="-164659429#0.30" x="2129.51" y="3093.13" type="priority"/>
    <node id="-164659429#1.45" x="2174.92" y="3105.03" type="priority"/>
    <node id="-164659429#1.7" x="2210.90" y="3114.44" type="priority"/>
    <node id="-164659429#2.3" x="2306.60" y="3139.50" type="priority"/>
    <node id="-164659429#2.41" x="2270.20" y="3129.97" type="priority"/>
    <node id="-164659429#2.86" x="2226.50" y="3118.53" type="priority"/>
    <node id="-164659430#0.8" x="3758.70" y="3204.54" type="priority"/>
    <node id="-164659430#1.92" x="3774.50" y="3207.20" type="priority"/>
    <node id="-164659430#2.8" x="3956.97" y="3238.38" type="priority"/>
    <node id="-164659430#3.8" x="4056.25" y="3255.22" type="priority"/>
    <node id="-164659430#3.92" x="3973.45" y="3241.20" type="priority"/>
    <node id="-164659431.2" x="2456.85" y="2970.32" type="priority"/>
    <node id="-164659431.79" x="2382.71" y="2951.14" type="priority"/>
    <node id="-164659431.86" x="2376.11" y="2949.66" type="priority"/>
    <node id="-164659432#0.24" x="3856.87" y="1375.37" type="priority"/>
    <node id="-164659432#2.3" x="3870.54" y="1293.66" type="priority"/>
    <node id="-164659433.3" x="3820.06" y="1591.17" type="priority"/>
    <node id="-164659433.86" x="3806.31" y="1672.40" type="priority"/>
    <node id="-164659434.3" x="3836.82" y="1491.36" type="priority"/>
    <node id="-164659434.86" x="3823.30" y="1573.53" type="priority"/>
    <node id="-164659435.4" x="3853.92" y="1392.75" type="priority"/>
    <node id="-164659435.81" x="3840.83" y="1469.25" type="priority"/>
    <node id="-164659435.87" x="3839.88" y="1474.59" type="priority"/>
    <node id="-164659436#0.33" x="3890.86" y="1174.62" type="priority"/>
    <node id="-164659436#2.5" x="3921.71" y="995.41" type="priority"/>
    <node id="-164659437.16" x="3597.62" y="2848.15" type="priority"/>
    <node id="-164659438#0.194" x="5062.99" y="2713.89" type="priority"/>
    <node id="-164659438#0.7" x="5247.11" y="2745.21" type="priority"/>
    <node id="-164659438#1.55" x="5261.64" y="2747.71" type="priority"/>
    <node id="-164659438#2.12" x="5359.70" y="2764.76" type="priority"/>
    <node id="-164659438#3.7" x="5384.67" y="2769.15" type="priority"/>
    <node id="-164659439#0.65" x="3079.02" y="2883.47" type="priority"/>
    <node id="-164659439#1.7" x="3215.17" y="2906.70" type="priority"/>
    <node id="-164659439#1.9" x="3213.31" y="2906.38" type="priority"/>
    <node id="-164659439#2.3" x="3298.98" y="2921.30" type="priority"/>
    <node id="-164659439#2.5" x="3296.61" y="2920.75" type="priority"/>
    <node id="-164659439#2.71" x="3231.32" y="2909.47" type="priority"/>
    <node id="-164659439#2.73" x="3230.17" y="2909.28" type="priority"/>
    <node id="-164659440#0.90" x="3597.80" y="2972.61" type="priority"/>
    <node id="-164659440#2.12" x="3868.59" y="3018.96" type="priority"/>
    <node id="-164659440#2.3" x="3877.48" y="3021.73" type="priority"/>
    <node id="-164659440#2.7" x="3873.79" y="3020.04" type="priority"/>
    <node id="-164659441#0.68" x="3318.14" y="2924.09" type="priority"/>
    <node id="-164659441#0.7" x="3378.34" y="2934.61" type="priority"/>
    <node id="-164659441#0.72" x="3314.57" y="2923.41" type="priority"/>
    <node id="-164659441#0.9" x="3376.62" y="2934.30" type="priority"/>
    <node id="-164659441#2.75" x="3410.51" y="2940.37" type="priority"/>
    <node id="-164659441#2.77" x="3408.08" y="2939.93" type="priority"/>
    <node id="-164659442.191" x="3305.71" y="2933.10" type="priority"/>
    <node id="-164659442.194" x="3306.11" y="2930.35" type="priority"/>
    <node id="-164659442.8" x="3274.87" y="3113.07" type="priority"/>
    <node id="-164659443#0.43" x="4162.02" y="1323.87" type="priority"/>
    <node id="-164659443#0.45" x="4161.92" y="1325.83" type="priority"/>
    <node id="-164659443#2.8" x="4169.66" y="1240.55" type="priority"/>
    <node id="-164659443#2.9" x="4169.39" y="1242.23" type="priority"/>
    <node id="-164659444.3" x="4151.04" y="1442.85" type="priority"/>
    <node id="-164659444.33" x="4148.18" y="1472.48" type="priority"/>
    <node id="-164659444.5" x="4150.86" y="1444.70" type="priority"/>
    <node id="-164659444.83" x="4143.74" y="1522.76" type="priority"/>
    <node id="-164659444.87" x="4143.50" y="1526.83" type="priority"/>
    <node id="-164659445.3" x="4160.30" y="1342.01" type="priority"/>
    <node id="-164659445.5" x="4160.01" y="1343.90" type="priority"/>
    <node id="-164659445.61" x="4155.03" y="1399.95" type="priority"/>
    <node id="-164659445.85" x="4152.83" y="1423.66" type="priority"/>
    <node id="-164659445.87" x="4152.61" y="1426.36" type="priority"/>
    <node id="-164659446.3" x="5103.85" y="2423.48" type="priority"/>
    <node id="-164659446.87" x="5089.70" y="2506.37" type="priority"/>
    <node id="-164659447#0.7" x="5070.35" y="2620.28" type="priority"/>
    <node id="-164659447#0.91" x="5056.11" y="2703.59" type="priority"/>
    <node id="-164659447#1.3" x="5086.68" y="2523.02" type="priority"/>
    <node id="-164659447#1.87" x="5072.78" y="2605.86" type="priority"/>
    <node id="-164659448.3" x="5052.99" y="2720.69" type="priority"/>
    <node id="-164659448.87" x="5039.12" y="2803.47" type="priority"/>
    <node id="-164659449#0.48" x="5141.44" y="2209.25" type="priority"/>
    <node id="-164659450#0.7" x="5120.91" y="2324.53" type="priority"/>
    <node id="-164659450#0.91" x="5106.75" y="2407.61" type="priority"/>
    <node id="-164659450#1.3" x="5137.55" y="2226.72" type="priority"/>