<?xml version="1.0" encoding="UTF-8"?>

<!-- generated on Sat Jan  1 05:08:39 2022 by Eclipse SUMO netconvert Version 1.8.0
<configuration xmlns:xsi="http://www.w3.org/2001/XMLSchema-instance" xsi:noNamespaceSchemaLocation="http://sumo.dlr.de/xsd/netconvertConfiguration.xsd">

    <input>
        <sumo-net-file value="berkeley.net.xml"/>
    </input>

    <output>
        <plain-output-prefix value="temp"/>
    </output>

    <processing>
        <geometry.min-radius.fix.railways value="false"/>
        <geometry.max-grade.fix value="false"/>
        <offset.disable-normalization value="true"/>
        <lefthand value="false"/>
    </processing>

    <junctions>
        <no-turnarounds value="true"/>
        <junctions.corner-detail value="5"/>
        <junctions.limit-turn-speed value="5.5"/>
        <rectangular-lane-cut value="false"/>
    </junctions>

    <pedestrian>
        <walkingareas value="false"/>
    </pedestrian>

    <report>
        <aggregate-warnings value="5"/>
    </report>

</configuration>
-->

<tlLogics version="1.6" xmlns:xsi="http://www.w3.org/2001/XMLSchema-instance" xsi:noNamespaceSchemaLocation="http://sumo.dlr.de/xsd/tllogic_file.xsd">
    <tlLogic id="1968181924" type="static" programID="0" offset="0">
        <phase duration="42" state="GGggrrrGGGg"/>
        <phase duration="3"  state="yyyyrrryyyy"/>
        <phase duration="42" state="rrrrGGgGrrr"/>
        <phase duration="3"  state="rrrryyyyrrr"/>
    </tlLogic>
    <tlLogic id="2133315391" type="static" programID="0" offset="0">
        <phase duration="42" state="GGggrrrrGGggrrrr"/>
        <phase duration="3"  state="yyyyrrrryyyyrrrr"/>
        <phase duration="42" state="rrrrGGggrrrrGGgg"/>
        <phase duration="3"  state="rrrryyyyrrrryyyy"/>
    </tlLogic>
    <tlLogic id="2327822491" type="static" programID="0" offset="0">
        <phase duration="27" state="rrrGGGrrrr"/>
        <phase duration="3"  state="rrryyyrrrr"/>
        <phase duration="27" state="rrrrrrGGgG"/>
        <phase duration="3"  state="rrrrrryyyy"/>
        <phase duration="27" state="GGgGrrrrrr"/>
        <phase duration="3"  state="yyyyrrrrrr"/>
    </tlLogic>
    <tlLogic id="239669505" type="static" programID="0" offset="0">
        <phase duration="38" state="GGggrrrrGGg"/>
        <phase duration="3"  state="yyggrrrryyy"/>
        <phase duration="6"  state="GGGGrrrrrrr"/>
        <phase duration="3"  state="yyyyrrrrrrr"/>
        <phase duration="37" state="rrrrGGGgGrr"/>
        <phase duration="3"  state="rrrryyyyyrr"/>
    </tlLogic>
    <tlLogic id="2820169753" type="static" programID="0" offset="0">
        <phase duration="38" state="GGGggrrrrGGGggrrrr"/>
        <phase duration="3"  state="yyyyyrrrryyyyyrrrr"/>
        <phase duration="37" state="rrrrrGGggrrrrrGGgg"/>
        <phase duration="3"  state="rrrrryyggrrrrryygg"/>
        <phase duration="6"  state="rrrrrrrGGrrrrrrrGG"/>
        <phase duration="3"  state="rrrrrrryyrrrrrrryy"/>
    </tlLogic>
    <tlLogic id="53019168" type="static" programID="0" offset="0">
        <phase duration="38" state="rrrrGGggrrrrGGgg"/>
        <phase duration="3"  state="rrrryyggrrrryygg"/>
        <phase duration="6"  state="rrrrrrGGrrrrrrGG"/>
        <phase duration="3"  state="rrrrrryyrrrrrryy"/>
        <phase duration="37" state="GGggrrrrGGggrrrr"/>
        <phase duration="3"  state="yyyyrrrryyyyrrrr"/>
    </tlLogic>
    <tlLogic id="53020923" type="static" programID="0" offset="0">
        <phase duration="38" state="GGGggrrrrrGGgggrrrrr"/>
        <phase duration="3"  state="yyyyyrrrrryyyyyrrrrr"/>
        <phase duration="37" state="rrrrrGGGggrrrrrGGggg"/>
        <phase duration="3"  state="rrrrryyyggrrrrryyggg"/>
        <phase duration="6"  state="rrrrrrrrGGrrrrrrrGGG"/>
        <phase duration="3"  state="rrrrrrrryyrrrrrrryyy"/>
    </tlLogic>
    <tlLogic id="53020968" type="static" programID="0" offset="0">
        <phase duration="38" state="GGGggrrrrGGGgg"/>
        <phase duration="3"  state="yyyggrrrryyygg"/>
        <phase duration="6"  state="rrrGGrrrrrrrGG"/>
        <phase duration="3"  state="rrryyrrrrrrryy"/>
        <phase duration="37" state="rrrrrGGGgGrrrr"/>
        <phase duration="3"  state="rrrrryyyyyrrrr"/>
    </tlLogic>
    <tlLogic id="53020974" type="static" programID="0" offset="0">
        <phase duration="82" state="GG"/>
        <phase duration="3"  state="yy"/>
        <phase duration="5"  state="rr"/>
    </tlLogic>
    <tlLogic id="53020976" type="static" programID="0" offset="0">
        <phase duration="27" state="rrG"/>
        <phase duration="3"  state="rry"/>
        <phase duration="27" state="Grr"/>
        <phase duration="3"  state="yrr"/>
        <phase duration="27" state="rGr"/>
        <phase duration="3"  state="ryr"/>
    </tlLogic>
    <tlLogic id="53020977" type="static" programID="0" offset="0">
        <phase duration="42" state="GGrG"/>
        <phase duration="3"  state="yyry"/>
        <phase duration="42" state="rrGG"/>
        <phase duration="3"  state="rryy"/>
    </tlLogic>
    <tlLogic id="53020989" type="static" programID="0" offset="0">
        <phase duration="42" state="GGgrrrGgg"/>
        <phase duration="3"  state="yyyrrryyy"/>
        <phase duration="42" state="rrrGGGrrr"/>
        <phase duration="3"  state="rrryyyrrr"/>
    </tlLogic>
    <tlLogic id="53020993" type="static" programID="0" offset="0">
        <phase duration="18" state="rrrrrrrrrGGG"/>
        <phase duration="3"  state="rrrrrrrrryyy"/>
        <phase duration="20" state="rrrrrrGGGrrr"/>
        <phase duration="3"  state="rrrrrryyyrrr"/>
        <phase duration="20" state="rrrGGgGrrrrr"/>
        <phase duration="3"  state="rrryyyyrrrrr"/>
        <phase duration="20" state="GGgGrrrrrrrr"/>
        <phase duration="3"  state="yyyyrrrrrrrr"/>
    </tlLogic>
    <tlLogic id="53028115" type="static" programID="0" offset="0">
        <phase duration="42" state="rrrrGGggrrrrGGgg"/>
        <phase duration="3"  state="rrrryyyyrrrryyyy"/>
        <phase duration="42" state="GGggrrrrGGggrrrr"/>
        <phase duration="3"  state="yyyyrrrryyyyrrrr"/>
    </tlLogic>
    <tlLogic id="53029721" type="static" programID="0" offset="0">
        <phase duration="38" state="rrrrGGggrrrrGGgg"/>
        <phase duration="3"  state="rrrryyggrrrryygg"/>
        <phase duration="6"  state="rrrrrrGGrrrrrrGG"/>
        <phase duration="3"  state="rrrrrryyrrrrrryy"/>
        <phase duration="37" state="GGggrrrrGGggrrrr"/>
        <phase duration="3"  state="yyyyrrrryyyyrrrr"/>
    </tlLogic>
    <tlLogic id="53029727" type="static" programID="0" offset="0">
        <phase duration="38" state="rrrrGGggrrrrGGgg"/>
        <phase duration="3"  state="rrrryyggrrrryygg"/>
        <phase duration="6"  state="rrrrrrGGrrrrrrGG"/>
        <phase duration="3"  state="rrrrrryyrrrrrryy"/>
        <phase duration="37" state="GGggrrrrGGggrrrr"/>
        <phase duration="3"  state="yyyyrrrryyyyrrrr"/>
    </tlLogic>
    <tlLogic id="53029728" type="static" programID="0" offset="0">
        <phase duration="38" state="rrrrGGggrrrrGGgg"/>
        <phase duration="3"  state="rrrryyggrrrryygg"/>
        <phase duration="6"  state="rrrrrrGGrrrrrrGG"/>
        <phase duration="3"  state="rrrrrryyrrrrrryy"/>
        <phase duration="37" state="GGggrrrrGGggrrrr"/>
        <phase duration="3"  state="yyyyrrrryyyyrrrr"/>
    </tlLogic>
    <tlLogic id="53029730" type="static" programID="0" offset="0">
        <phase duration="38" state="rrrrGGggrrrrGGgg"/>
        <phase duration="3"  state="rrrryyggrrrryygg"/>
        <phase duration="6"  state="rrrrrrGGrrrrrrGG"/>
        <phase duration="3"  state="rrrrrryyrrrrrryy"/>
        <phase duration="37" state="GGggrrrrGGggrrrr"/>
        <phase duration="3"  state="yyyyrrrryyyyrrrr"/>
    </tlLogic>
    <tlLogic id="53029736" type="static" programID="0" offset="0">
        <phase duration="38" state="rrrrGGggrrrrGGgg"/>
        <phase duration="3"  state="rrrryyggrrrryygg"/>
        <phase duration="6"  state="rrrrrrGGrrrrrrGG"/>
        <phase duration="3"  state="rrrrrryyrrrrrryy"/>
        <phase duration="37" state="GGggrrrrGGggrrrr"/>
        <phase duration="3"  state="yyyyrrrryyyyrrrr"/>
    </tlLogic>
    <tlLogic id="53037915" type="static" programID="0" offset="0">
        <phase duration="42" state="GGgrrrrGGggrrrr"/>
        <phase duration="3"  state="yyyrrrryyyyrrrr"/>
        <phase duration="42" state="rrrGGggrrrrGGgg"/>
        <phase duration="3"  state="rrryyyyrrrryyyy"/>
    </tlLogic>
    <tlLogic id="53039510" type="static" programID="0" offset="0">
        <phase duration="42" state="rrrGGGgrrrGGGGg"/>
        <phase duration="3"  state="rrryyyyrrryyyyy"/>
        <phase duration="42" state="GGgrrrrGGgrrrrr"/>
        <phase duration="3"  state="yyyrrrryyyrrrrr"/>
    </tlLogic>
    <tlLogic id="53041081" type="static" programID="0" offset="0">
        <phase duration="42" state="rrGGgGGg"/>
        <phase duration="3"  state="rryyyyyy"/>
        <phase duration="42" state="GGrrrrrr"/>
        <phase duration="3"  state="yyrrrrrr"/>
    </tlLogic>
    <tlLogic id="53041087" type="static" programID="0" offset="0">
        <phase duration="42" state="GGrrr"/>
        <phase duration="3"  state="yyrrr"/>
        <phase duration="42" state="rrGGG"/>
        <phase duration="3"  state="rryyy"/>
    </tlLogic>
    <tlLogic id="53041090" type="static" programID="0" offset="0">
        <phase duration="42" state="GGrr"/>
        <phase duration="3"  state="yyrr"/>
        <phase duration="42" state="rrGG"/>
        <phase duration="3"  state="rryy"/>
    </tlLogic>
    <tlLogic id="53041092" type="static" programID="0" offset="0">
        <phase duration="42" state="GGrr"/>
        <phase duration="3"  state="yyrr"/>
        <phase duration="42" state="rrGG"/>
        <phase duration="3"  state="rryy"/>
    </tlLogic>
    <tlLogic id="53041093" type="static" programID="0" offset="0">
        <phase duration="42" state="GGrrr"/>
        <phase duration="3"  state="yyrrr"/>
        <phase duration="42" state="rrGGG"/>
        <phase duration="3"  state="rryyy"/>
    </tlLogic>
    <tlLogic id="53041097" type="static" programID="0" offset="0">
        <phase duration="42" state="rrrGggGGg"/>
        <phase duration="3"  state="rrryyyyyy"/>
        <phase duration="42" state="GGGrrrrrr"/>
        <phase duration="3"  state="yyyrrrrrr"/>
    </tlLogic>
    <tlLogic id="53042657" type="static" programID="0" offset="0">
        <phase duration="42" state="rrrrGGGggrrrrGGGgg"/>
        <phase duration="3"  state="rrrryyyyyrrrryyyyy"/>
        <phase duration="42" state="GGggrrrrrGGggrrrrr"/>
        <phase duration="3"  state="yyyyrrrrryyyyrrrrr"/>
    </tlLogic>
    <tlLogic id="53050565" type="static" programID="0" offset="0">
        <phase duration="42" state="rrrrGGggrrrrGGgg"/>
        <phase duration="3"  state="rrrryyyyrrrryyyy"/>
        <phase duration="42" state="GGggrrrrGGggrrrr"/>
        <phase duration="3"  state="yyyyrrrryyyyrrrr"/>
    </tlLogic>
    <tlLogic id="53050596" type="static" programID="0" offset="0">
        <phase duration="38" state="GGggrrrGGggrrrr"/>
        <phase duration="3"  state="yyyyrrryyyyrrrr"/>
        <phase duration="37" state="rrrrGGgrrrrGGgg"/>
        <phase duration="3"  state="rrrryygrrrryygg"/>
        <phase duration="6"  state="rrrrrrGrrrrrrGG"/>
        <phase duration="3"  state="rrrrrryrrrrrryy"/>
    </tlLogic>
    <tlLogic id="53055185" type="static" programID="0" offset="0">
        <phase duration="42" state="rrrrGGGggrrrrGGGgg"/>
        <phase duration="3"  state="rrrryyyyyrrrryyyyy"/>
        <phase duration="42" state="GGggrrrrrGGggrrrrr"/>
        <phase duration="3"  state="yyyyrrrrryyyyrrrrr"/>
    </tlLogic>
    <tlLogic id="53055189" type="static" programID="0" offset="0">
        <phase duration="42" state="GGggrrrrGGggrrrr"/>
        <phase duration="3"  state="yyyyrrrryyyyrrrr"/>
        <phase duration="42" state="rrrrGGggrrrrGGgg"/>
        <phase duration="3"  state="rrrryyyyrrrryyyy"/>
    </tlLogic>
    <tlLogic id="53055195" type="static" programID="0" offset="0">
        <phase duration="33" state="GGGggrrrrGGggrrrr"/>
        <phase duration="3"  state="yyyggrrrryyggrrrr"/>
        <phase duration="6"  state="rrrGGrrrrrrGGrrrr"/>
        <phase duration="3"  state="rrryyrrrrrryyrrrr"/>
        <phase duration="33" state="rrrrrGGggrrrrGGgg"/>
        <phase duration="3"  state="rrrrryyggrrrryygg"/>
        <phase duration="6"  state="rrrrrrrGGrrrrrrGG"/>
        <phase duration="3"  state="rrrrrrryyrrrrrryy"/>
    </tlLogic>
    <tlLogic id="53055202" type="static" programID="0" offset="0">
        <phase duration="38" state="GGgGggrrr"/>
        <phase duration="3"  state="yyyyggrrr"/>
        <phase duration="6"  state="rrrGGGrrr"/>
        <phase duration="3"  state="rrryyyrrr"/>
        <phase duration="37" state="GrrrrrGGg"/>
        <phase duration="3"  state="yrrrrryyy"/>
    </tlLogic>
    <tlLogic id="53055544" type="static" programID="0" offset="0">
        <phase duration="38" state="GGGgrrrGGGgrrr"/>
        <phase duration="3"  state="yyygrrryyygrrr"/>
        <phase duration="6"  state="rrrGrrrrrrGrrr"/>
        <phase duration="3"  state="rrryrrrrrryrrr"/>
        <phase duration="37" state="rrrrGGgrrrrGGg"/>
        <phase duration="3"  state="rrrryyyrrrryyy"/>
    </tlLogic>
    <tlLogic id="53055556" type="static" programID="0" offset="0">
        <phase duration="42" state="GGggrrrrGGggrrrr"/>
        <phase duration="3"  state="yyyyrrrryyyyrrrr"/>
        <phase duration="42" state="rrrrGGggrrrrGGgg"/>
        <phase duration="3"  state="rrrryyyyrrrryyyy"/>
    </tlLogic>
    <tlLogic id="53056333" type="static" programID="0" offset="0">
        <phase duration="42" state="GGggrrrrGGGggrrrr"/>
        <phase duration="3"  state="yyyyrrrryyyyyrrrr"/>
        <phase duration="42" state="rrrrGGggrrrrrGGgg"/>
        <phase duration="3"  state="rrrryyyyrrrrryyyy"/>
    </tlLogic>
    <tlLogic id="53056335" type="static" programID="0" offset="0">
        <phase duration="33" state="GGggrrrrGGggrrrr"/>
        <phase duration="3"  state="yyggrrrryyggrrrr"/>
        <phase duration="6"  state="rrGGrrrrrrGGrrrr"/>
        <phase duration="3"  state="rryyrrrrrryyrrrr"/>
        <phase duration="33" state="rrrrGGggrrrrGGgg"/>
        <phase duration="3"  state="rrrryyggrrrryygg"/>
        <phase duration="6"  state="rrrrrrGGrrrrrrGG"/>
        <phase duration="3"  state="rrrrrryyrrrrrryy"/>
    </tlLogic>
    <tlLogic id="53058797" type="static" programID="0" offset="0">
        <phase duration="42" state="GGgGGggrrr"/>
        <phase duration="3"  state="yyyyyyyrrr"/>
        <phase duration="42" state="GrrrrrrGGg"/>
        <phase duration="3"  state="yrrrrrryyy"/>
    </tlLogic>
    <tlLogic id="53059380" type="static" programID="0" offset="0">
        <phase duration="42" state="GGggrrrGGGg"/>
        <phase duration="3"  state="yyyyrrryyyy"/>
        <phase duration="42" state="rrrrGGgGrrr"/>
        <phase duration="3"  state="rrrryyyyrrr"/>
    </tlLogic>
    <tlLogic id="53060402" type="static" programID="0" offset="0">
        <phase duration="42" state="GGGggrrrrGGGggrrrr"/>
        <phase duration="3"  state="yyyyyrrrryyyyyrrrr"/>
        <phase duration="42" state="rrrrrGGggrrrrrGGgg"/>
        <phase duration="3"  state="rrrrryyyyrrrrryyyy"/>
    </tlLogic>
    <tlLogic id="53063545" type="static" programID="0" offset="0">
        <phase duration="42" state="rGGGggrGGGgg"/>
        <phase duration="3"  state="ryyyyyryyyyy"/>
        <phase duration="42" state="GGrrGrGrrrrr"/>
        <phase duration="3"  state="yyrryryrrrrr"/>
    </tlLogic>
    <tlLogic id="53063555" type="static" programID="0" offset="0">
        <phase duration="42" state="GGgrrrrGgg"/>
        <phase duration="3"  state="yyyrrrryyy"/>
        <phase duration="42" state="rrrGGGGrrr"/>
        <phase duration="3"  state="rrryyyyrrr"/>
    </tlLogic>
    <tlLogic id="53063558" type="static" programID="0" offset="0">
        <phase duration="42" state="rrrrGGggrrrrGGgg"/>
        <phase duration="3"  state="rrrryyyyrrrryyyy"/>
        <phase duration="42" state="GGggrrrrGGggrrrr"/>
        <phase duration="3"  state="yyyyrrrryyyyrrrr"/>
    </tlLogic>
    <tlLogic id="53064860" type="static" programID="0" offset="0">
        <phase duration="42" state="GGggrrrrGGggrrrr"/>
        <phase duration="3"  state="yyyyrrrryyyyrrrr"/>
        <phase duration="42" state="rrrrGGggrrrrGGgg"/>
        <phase duration="3"  state="rrrryyyyrrrryyyy"/>
    </tlLogic>
    <tlLogic id="53068384" type="static" programID="0" offset="0">
        <phase duration="42" state="GGGggrrrrGGGggrrrr"/>
        <phase duration="3"  state="yyyyyrrrryyyyyrrrr"/>
        <phase duration="42" state="rrrrrGGggrrrrrGGgg"/>
        <phase duration="3"  state="rrrrryyyyrrrrryyyy"/>
    </tlLogic>
    <tlLogic id="53073464" type="static" programID="0" offset="0">
        <phase duration="42" state="GGgrrrGgg"/>
        <phase duration="3"  state="yyyrrryyy"/>
        <phase duration="42" state="rrrGGGrrr"/>
        <phase duration="3"  state="rrryyyrrr"/>
    </tlLogic>
    <tlLogic id="53082196" type="static" programID="0" offset="0">
        <phase duration="42" state="rrrrGGggrrrrGGgg"/>
        <phase duration="3"  state="rrrryyyyrrrryyyy"/>
        <phase duration="42" state="GGggrrrrGGggrrrr"/>
        <phase duration="3"  state="yyyyrrrryyyyrrrr"/>
    </tlLogic>
    <tlLogic id="53082209" type="static" programID="0" offset="0">
        <phase duration="42" state="rrrrGGggrrrrGGgg"/>
        <phase duration="3"  state="rrrryyyyrrrryyyy"/>
        <phase duration="42" state="GGggrrrrGGggrrrr"/>
        <phase duration="3"  state="yyyyrrrryyyyrrrr"/>
    </tlLogic>
    <tlLogic id="53082568" type="static" programID="0" offset="0">
        <phase duration="42" state="rrrrGGGggrrrrGGGgg"/>
        <phase duration="3"  state="rrrryyyyyrrrryyyyy"/>
        <phase duration="42" state="GGggrrrrrGGggrrrrr"/>
        <phase duration="3"  state="yyyyrrrrryyyyrrrrr"/>
    </tlLogic>
    <tlLogic id="53082589" type="static" programID="0" offset="0">
        <phase duration="42" state="GGggrrrrGGggrrrr"/>
        <phase duration="3"  state="yyyyrrrryyyyrrrr"/>
        <phase duration="42" state="rrrrGGggrrrrGGgg"/>
        <phase duration="3"  state="rrrryyyyrrrryyyy"/>
    </tlLogic>
    <tlLogic id="53082750" type="static" programID="0" offset="0">
        <phase duration="42" state="GggrrrGGg"/>
        <phase duration="3"  state="yyyrrryyy"/>
        <phase duration="42" state="rrrGGgGrr"/>
        <phase duration="3"  state="rrryyyyrr"/>
    </tlLogic>
    <tlLogic id="53084126" type="static" programID="0" offset="0">
        <phase duration="42" state="GGrr"/>
        <phase duration="3"  state="yyrr"/>
        <phase duration="42" state="rrGG"/>
        <phase duration="3"  state="rryy"/>
    </tlLogic>
    <tlLogic id="53085634" type="static" programID="0" offset="0">
        <phase duration="42" state="rrrGGgGgg"/>
        <phase duration="3"  state="rrryyyyyy"/>
        <phase duration="42" state="GGgGrrrrr"/>
        <phase duration="3"  state="yyyyrrrrr"/>
    </tlLogic>
    <tlLogic id="53090675" type="static" programID="0" offset="0">
        <phase duration="42" state="GGgrrrGgg"/>
        <phase duration="3"  state="yyyrrryyy"/>
        <phase duration="42" state="rrrGGGrrr"/>
        <phase duration="3"  state="rrryyyrrr"/>
    </tlLogic>
    <tlLogic id="53090683" type="static" programID="0" offset="0">
        <phase duration="38" state="GGggrrrrGGggrrrr"/>
        <phase duration="3"  state="yyggrrrryyggrrrr"/>
        <phase duration="6"  state="rrGGrrrrrrGGrrrr"/>
        <phase duration="3"  state="rryyrrrrrryyrrrr"/>
        <phase duration="37" state="rrrrGGggrrrrGGgg"/>
        <phase duration="3"  state="rrrryyyyrrrryyyy"/>
    </tlLogic>
    <tlLogic id="53090692" type="static" programID="0" offset="0">
        <phase duration="42" state="GGggrrrrGGggrrrr"/>
        <phase duration="3"  state="yyyyrrrryyyyrrrr"/>
        <phase duration="42" state="rrrrGGggrrrrGGgg"/>
        <phase duration="3"  state="rrrryyyyrrrryyyy"/>
    </tlLogic>
    <tlLogic id="53093979" type="static" programID="0" offset="0">
        <phase duration="42" state="rrrrGGggrrrrGGgg"/>
        <phase duration="3"  state="rrrryyyyrrrryyyy"/>
        <phase duration="42" state="GGggrrrrGGggrrrr"/>
        <phase duration="3"  state="yyyyrrrryyyyrrrr"/>
    </tlLogic>
    <tlLogic id="53096046" type="static" programID="0" offset="0">
        <phase duration="42" state="GGggrrrrGGggrrrr"/>
        <phase duration="3"  state="yyyyrrrryyyyrrrr"/>
        <phase duration="42" state="rrrrGGggrrrrGGgg"/>
        <phase duration="3"  state="rrrryyyyrrrryyyy"/>
    </tlLogic>
    <tlLogic id="53096083" type="static" programID="0" offset="0">
        <phase duration="42" state="rrrrGGGgGGG"/>
        <phase duration="3"  state="rrrryyyyyyy"/>
        <phase duration="42" state="GGGgGrrrrrr"/>
        <phase duration="3"  state="yyyyyrrrrrr"/>
    </tlLogic>
    <tlLogic id="53096121" type="static" programID="0" offset="0">
        <phase duration="42" state="GGgrrrrrGgg"/>
        <phase duration="3"  state="yyyrrrrryyy"/>
        <phase duration="42" state="rrrGGGGGrrr"/>
        <phase duration="3"  state="rrryyyyyrrr"/>
    </tlLogic>
    <tlLogic id="53099275" type="static" programID="0" offset="0">
        <phase duration="42" state="GGGrr"/>
        <phase duration="3"  state="yyyrr"/>
        <phase duration="42" state="rrrGG"/>
        <phase duration="3"  state="rrryy"/>
    </tlLogic>
    <tlLogic id="53099277" type="static" programID="0" offset="0">
        <phase duration="42" state="GGggrrrrGGggrrrr"/>
        <phase duration="3"  state="yyyyrrrryyyyrrrr"/>
        <phase duration="42" state="rrrrGGggrrrrGGgg"/>
        <phase duration="3"  state="rrrryyyyrrrryyyy"/>
    </tlLogic>
    <tlLogic id="53099283" type="static" programID="0" offset="0">
        <phase duration="42" state="rrrrGGGggrrrrGGGgg"/>
        <phase duration="3"  state="rrrryyyyyrrrryyyyy"/>
        <phase duration="42" state="GGggrrrrrGGggrrrrr"/>
        <phase duration="3"  state="yyyyrrrrryyyyrrrrr"/>
    </tlLogic>
    <tlLogic id="53099285" type="static" programID="0" offset="0">
        <phase duration="42" state="GGggrrrrGGggrrrr"/>
        <phase duration="3"  state="yyyyrrrryyyyrrrr"/>
        <phase duration="42" state="rrrrGGggrrrrGGgg"/>
        <phase duration="3"  state="rrrryyyyrrrryyyy"/>
    </tlLogic>
    <tlLogic id="53103803" type="static" programID="0" offset="0">
        <phase duration="42" state="GGGrrr"/>
        <phase duration="3"  state="yyyrrr"/>
        <phase duration="42" state="rrrGGG"/>
        <phase duration="3"  state="rrryyy"/>
    </tlLogic>
    <tlLogic id="53103804" type="static" programID="0" offset="0">
        <phase duration="42" state="GGrr"/>
        <phase duration="3"  state="yyrr"/>
        <phase duration="42" state="rrGG"/>
        <phase duration="3"  state="rryy"/>
    </tlLogic>
    <tlLogic id="53108745" type="static" programID="0" offset="0">
        <phase duration="42" state="rrrrGGggrrrrGGgg"/>
        <phase duration="3"  state="rrrryyyyrrrryyyy"/>
        <phase duration="42" state="GGggrrrrGGggrrrr"/>
        <phase duration="3"  state="yyyyrrrryyyyrrrr"/>
    </tlLogic>
    <tlLogic id="53111879" type="static" programID="0" offset="0">
        <phase duration="42" state="GggrrrGGg"/>
        <phase duration="3"  state="yyyrrryyy"/>
        <phase duration="42" state="rrrGGgGrr"/>
        <phase duration="3"  state="rrryyyyrr"/>
    </tlLogic>
    <tlLogic id="53111887" type="static" programID="0" offset="0">
        <phase duration="42" state="rrrrGGGggrrrrGGGgg"/>
        <phase duration="3"  state="rrrryyyyyrrrryyyyy"/>
        <phase duration="42" state="GGggrrrrrGGggrrrrr"/>
        <phase duration="3"  state="yyyyrrrrryyyyrrrrr"/>
    </tlLogic>
    <tlLogic id="53112051" type="static" programID="0" offset="0">
        <phase duration="38" state="GgrrGg"/>
        <phase duration="3"  state="ygrryy"/>
        <phase duration="6"  state="GGrrrr"/>
        <phase duration="3"  state="yyrrrr"/>
        <phase duration="37" state="rrGgGr"/>
        <phase duration="3"  state="rryyyr"/>
    </tlLogic>
    <tlLogic id="53115327" type="static" programID="0" offset="0">
        <phase duration="42" state="rrrrGGggrrrrGGgg"/>
        <phase duration="3"  state="rrrryyyyrrrryyyy"/>
        <phase duration="42" state="GGggrrrrGGggrrrr"/>
        <phase duration="3"  state="yyyyrrrryyyyrrrr"/>
    </tlLogic>
    <tlLogic id="53115329" type="static" programID="0" offset="0">
        <phase duration="42" state="GGggrrrrGGggrrrr"/>
        <phase duration="3"  state="yyyyrrrryyyyrrrr"/>
        <phase duration="42" state="rrrrGGggrrrrGGgg"/>
        <phase duration="3"  state="rrrryyyyrrrryyyy"/>
    </tlLogic>
    <tlLogic id="53116963" type="static" programID="0" offset="0">
        <phase duration="33" state="GGGggrrrrrGGGggrrrrr"/>
        <phase duration="3"  state="yyyggrrrrryyyggrrrrr"/>
        <phase duration="6"  state="rrrGGrrrrrrrrGGrrrrr"/>
        <phase duration="3"  state="rrryyrrrrrrrryyrrrrr"/>
        <phase duration="33" state="rrrrrGGGggrrrrrGGGgg"/>
        <phase duration="3"  state="rrrrryyyggrrrrryyygg"/>
        <phase duration="6"  state="rrrrrrrrGGrrrrrrrrGG"/>
        <phase duration="3"  state="rrrrrrrryyrrrrrrrryy"/>
    </tlLogic>
    <tlLogic id="53117367" type="static" programID="0" offset="0">
        <phase duration="42" state="GGGgrrrGGGGgrrrr"/>
        <phase duration="3"  state="yyyyrrryyyyyrrrr"/>
        <phase duration="42" state="rrrrGGgrrrrrGGgg"/>
        <phase duration="3"  state="rrrryyyrrrrryyyy"/>
    </tlLogic>
    <tlLogic id="53117372" type="static" programID="0" offset="0">
        <phase duration="42" state="GGGggrrrrGGGggrrrr"/>
        <phase duration="3"  state="yyyyyrrrryyyyyrrrr"/>
        <phase duration="42" state="rrrrrGGggrrrrrGGgg"/>
        <phase duration="3"  state="rrrrryyyyrrrrryyyy"/>
    </tlLogic>
    <tlLogic id="53117382" type="static" programID="0" offset="0">
        <phase duration="38" state="GGGggrrrrGGGggrrrr"/>
        <phase duration="3"  state="yyyyyrrrryyyyyrrrr"/>
        <phase duration="37" state="rrrrrGGggrrrrrGGgg"/>
        <phase duration="3"  state="rrrrryyggrrrrryygg"/>
        <phase duration="6"  state="rrrrrrrGGrrrrrrrGG"/>
        <phase duration="3"  state="rrrrrrryyrrrrrrryy"/>
    </tlLogic>
    <tlLogic id="53122849" type="static" programID="0" offset="0">
        <phase duration="42" state="GGggrrrrGGggrrrr"/>
        <phase duration="3"  state="yyyyrrrryyyyrrrr"/>
        <phase duration="42" state="rrrrGGggrrrrGGgg"/>
        <phase duration="3"  state="rrrryyyyrrrryyyy"/>
    </tlLogic>
    <tlLogic id="53146071" type="static" programID="0" offset="0">
        <phase duration="38" state="rrrrGGggrrrrGGgg"/>
        <phase duration="3"  state="rrrryyggrrrryygg"/>
        <phase duration="6"  state="rrrrrrGGrrrrrrGG"/>
        <phase duration="3"  state="rrrrrryyrrrrrryy"/>
        <phase duration="37" state="GGggrrrrGGggrrrr"/>
        <phase duration="3"  state="yyyyrrrryyyyrrrr"/>
    </tlLogic>
    <tlLogic id="53146078" type="static" programID="0" offset="0">
        <phase duration="42" state="GGgrrrGGGg"/>
        <phase duration="3"  state="yyyrrryyyy"/>
        <phase duration="42" state="rrrGGgGrrr"/>
        <phase duration="3"  state="rrryyyyrrr"/>
    </tlLogic>
    <tlLogic id="53149317" type="static" programID="0" offset="0">
        <phase duration="42" state="GGggrrrrGGggrrrr"/>
        <phase duration="3"  state="yyyyrrrryyyyrrrr"/>
        <phase duration="42" state="rrrrGGggrrrrGGgg"/>
        <phase duration="3"  state="rrrryyyyrrrryyyy"/>
    </tlLogic>
    <tlLogic id="57066388" type="static" programID="0" offset="0">
        <phase duration="38" state="rrrrGGGggrrrrGGGgg"/>
        <phase duration="3"  state="rrrryyyggrrrryyygg"/>
        <phase duration="6"  state="rrrrrrrGGrrrrrrrGG"/>
        <phase duration="3"  state="rrrrrrryyrrrrrrryy"/>
        <phase duration="37" state="GGggrrrrrGGggrrrrr"/>
        <phase duration="3"  state="yyyyrrrrryyyyrrrrr"/>
    </tlLogic>
    <tlLogic id="57066394" type="static" programID="0" offset="0">
        <phase duration="42" state="rrrGGGgGGgg"/>
        <phase duration="3"  state="rrryyyyyyyy"/>
        <phase duration="42" state="GGgGrrrrrrr"/>
        <phase duration="3"  state="yyyyrrrrrrr"/>
    </tlLogic>
    <tlLogic id="GS_cluster_240404695_53050603" type="static" programID="0" offset="0">
        <phase duration="42" state="rGGggrrrrGGgg"/>
        <phase duration="3"  state="ryyyyrrrryyyy"/>
        <phase duration="42" state="GrrrrGGggGrrr"/>
        <phase duration="3"  state="yrrrryyyyyrrr"/>
    </tlLogic>
    <tlLogic id="cluster_1960546510_239616902_261736139_261736143_4260224197_53019173" type="static" programID="0" offset="0">
        <phase duration="38" state="rrrrGGggrrrrGGgg"/>
        <phase duration="3"  state="rrrryyggrrrryygg"/>
        <phase duration="6"  state="rrrrrrGGrrrrrrGG"/>
        <phase duration="3"  state="rrrrrryyrrrrrryy"/>
        <phase duration="37" state="GGggrrrrGGggrrrr"/>
        <phase duration="3"  state="yyyyrrrryyyyrrrr"/>
    </tlLogic>
    <tlLogic id="cluster_239616933_53059841" type="static" programID="0" offset="0">
        <phase duration="42" state="rrrGGgGGgg"/>
        <phase duration="3"  state="rrryyyyyyy"/>
        <phase duration="42" state="GGgGrrrrrr"/>
        <phase duration="3"  state="yyyyrrrrrr"/>
    </tlLogic>
    <tlLogic id="cluster_239616965_53055193" type="static" programID="0" offset="0">
        <phase duration="33" state="rrrrGGGggrrrrrGGGgg"/>
        <phase duration="3"  state="rrrryyyggrrrrryyygg"/>