<additional>
<edgeData id="detector1" type="emissions" file="additionaloutput" excludeEmpty="true"/>
</additional>