<?xml version="1.0" encoding="UTF-8"?>

<!-- generated on Sun Sep 12 15:13:34 2021 by Eclipse SUMO netconvert Version 1.8.0
<configuration xmlns:xsi="http://www.w3.org/2001/XMLSchema-instance" xsi:noNamespaceSchemaLocation="http://sumo.dlr.de/xsd/netconvertConfiguration.xsd">

    <input>
        <sumo-net-file value="seattle.net.xml"/>
    </input>

    <output>
        <plain-output-prefix value="newtry"/>
        <output.street-names value="true"/>
    </output>

    <processing>
        <geometry.min-radius.fix.railways value="false"/>
        <geometry.max-grade.fix value="false"/>
        <offset.disable-normalization value="true"/>
        <lefthand value="false"/>
    </processing>

    <junctions>
        <no-turnarounds value="true"/>
        <junctions.corner-detail value="5"/>
        <junctions.limit-turn-speed value="5.5"/>
        <rectangular-lane-cut value="false"/>
    </junctions>

    <pedestrian>
        <walkingareas value="false"/>
    </pedestrian>

    <report>
        <aggregate-warnings value="5"/>
    </report>

</configuration>
-->

<nodes version="1.6" xmlns:xsi="http://www.w3.org/2001/XMLSchema-instance" xsi:noNamespaceSchemaLocation="http://sumo.dlr.de/xsd/nodes_file.xsd">
    <location netOffset="-550338.42,-5270627.51" convBoundary="0.00,0.00,4024.56,6250.59" origBoundary="-122.343395,47.576916,-122.224809,47.648626" projParameter="+proj=utm +zone=10 +ellps=WGS84 +datum=WGS84 +units=m +no_defs"/>

    <node id="-127697507.48" x="1615.38" y="610.07" type="priority"/>
    <node id="-127697509#1.7" x="1503.88" y="824.84" type="priority"/>
    <node id="-127697509#5.11" x="1519.20" y="795.66" type="priority"/>
    <node id="-127697509#5.23" x="1514.04" y="805.63" type="priority"/>
    <node id="-127697509#5.32" x="1509.69" y="813.96" type="priority"/>
    <node id="-13721473#2.14" x="987.64" y="1077.29" type="priority"/>
    <node id="-13721473#2.16" x="987.60" y="1079.63" type="priority"/>
    <node id="-13721473#2.9" x="987.65" y="1072.42" type="priority"/>
    <node id="-13721473#2.92" x="987.57" y="1154.86" type="priority"/>
    <node id="-13726934#1.5" x="506.33" y="2552.42" type="priority"/>
    <node id="-14374224#3.37" x="2564.73" y="1407.25" type="priority"/>
    <node id="-14374224#3.41" x="2564.75" y="1410.56" type="priority"/>
    <node id="-14374224#3.85" x="2565.02" y="1454.95" type="priority"/>
    <node id="-14374224#8.45" x="2563.41" y="1284.50" type="priority"/>
    <node id="-14374224#8.76" x="2564.02" y="1315.27" type="priority"/>
    <node id="-14374224#8.8" x="2562.68" y="1247.25" type="priority"/>
    <node id="-14374224#8.86" x="2564.21" y="1324.61" type="priority"/>
    <node id="-149669465#1.55" x="2082.68" y="6143.39" type="priority"/>
    <node id="-149669465#1.62" x="2082.29" y="6150.26" type="priority"/>
    <node id="-149669465#1.69" x="2081.15" y="6157.06" type="priority"/>
    <node id="-149669465#1.7" x="2082.97" y="6095.25" type="priority"/>
    <node id="-149669465#1.75" x="2079.37" y="6163.63" type="priority"/>
    <node id="-149669465#4.75" x="2082.88" y="6082.10" type="priority"/>
    <node id="-149669465#4.9" x="2083.25" y="6015.80" type="priority"/>
    <node id="-149669465#8.44" x="2083.36" y="5970.58" type="priority"/>
    <node id="-149669465#8.51" x="2083.34" y="5978.24" type="priority"/>
    <node id="-149669465#8.75" x="2083.29" y="6001.49" type="priority"/>
    <node id="-149669465#8.8" x="2083.46" y="5934.74" type="priority"/>
    <node id="-157026977#1.100" x="2810.82" y="5945.79" type="priority"/>
    <node id="-157026977#1.108" x="2814.08" y="5938.57" type="priority"/>
    <node id="-157026977#1.118" x="2816.58" y="5929.39" type="priority"/>
    <node id="-157026977#1.122" x="2817.53" y="5924.85" type="priority"/>
    <node id="-157026977#1.126" x="2818.47" y="5921.38" type="priority"/>
    <node id="-157026977#1.131" x="2820.78" y="5916.63" type="priority"/>
    <node id="-157026977#1.137" x="2824.23" y="5912.66" type="priority"/>
    <node id="-157026977#1.14" x="2768.69" y="6013.74" type="priority"/>
    <node id="-157026977#1.142" x="2828.75" y="5909.57" type="priority"/>
    <node id="-157026977#1.147" x="2832.83" y="5907.65" type="priority"/>
    <node id="-157026977#1.151" x="2836.64" y="5906.38" type="priority"/>
    <node id="-157026977#1.154" x="2840.07" y="5905.82" type="priority"/>
    <node id="-157026977#1.157" x="2842.65" y="5905.94" type="priority"/>
    <node id="-157026977#1.159" x="2844.95" y="5906.46" type="priority"/>
    <node id="-157026977#1.167" x="2852.84" y="5908.59" type="priority"/>
    <node id="-157026977#1.170" x="2855.50" y="5909.01" type="priority"/>
    <node id="-157026977#1.173" x="2858.48" y="5908.74" type="priority"/>
    <node id="-157026977#1.175" x="2860.87" y="5907.84" type="priority"/>
    <node id="-157026977#1.179" x="2864.04" y="5906.43" type="priority"/>
    <node id="-157026977#1.183" x="2866.81" y="5904.04" type="priority"/>
    <node id="-157026977#1.186" x="2868.62" y="5901.40" type="priority"/>
    <node id="-157026977#1.188" x="2869.49" y="5899.60" type="priority"/>
    <node id="-157026977#1.196" x="2871.47" y="5891.89" type="priority"/>
    <node id="-157026977#1.21" x="2774.65" y="6010.30" type="priority"/>
    <node id="-157026977#1.247" x="2882.27" y="5842.17" type="priority"/>
    <node id="-157026977#1.254" x="2884.23" y="5835.15" type="priority"/>
    <node id="-157026977#1.263" x="2887.79" y="5826.55" type="priority"/>
    <node id="-157026977#1.273" x="2892.55" y="5818.01" type="priority"/>
    <node id="-157026977#1.28" x="2779.36" y="6006.19" type="priority"/>
    <node id="-157026977#1.283" x="2898.76" y="5809.58" type="priority"/>
    <node id="-157026977#1.295" x="2906.81" y="5801.51" type="priority"/>
    <node id="-157026977#1.307" x="2916.68" y="5794.49" type="priority"/>
    <node id="-157026977#1.322" x="2930.61" y="5787.87" type="priority"/>
    <node id="-157026977#1.33" x="2782.64" y="6002.34" type="priority"/>
    <node id="-157026977#1.37" x="2784.47" y="5998.70" type="priority"/>
    <node id="-157026977#1.43" x="2786.37" y="5992.78" type="priority"/>
    <node id="-157026977#1.48" x="2786.99" y="5987.98" type="priority"/>
    <node id="-157026977#1.52" x="2786.86" y="5983.69" type="priority"/>
    <node id="-157026977#1.58" x="2785.73" y="5977.80" type="priority"/>
    <node id="-157026977#1.61" x="2785.75" y="5974.76" type="priority"/>
    <node id="-157026977#1.64" x="2786.47" y="5971.56" type="priority"/>
    <node id="-157026977#1.66" x="2787.27" y="5969.85" type="priority"/>
    <node id="-157026977#1.69" x="2788.43" y="5967.51" type="priority"/>
    <node id="-157026977#1.71" x="2789.91" y="5965.67" type="priority"/>
    <node id="-157026977#1.76" x="2793.79" y="5963.13" type="priority"/>
    <node id="-157026977#1.8" x="2762.97" y="6017.20" type="priority"/>
    <node id="-157026977#1.83" x="2799.79" y="5958.76" type="priority"/>
    <node id="-157026977#1.91" x="2805.51" y="5953.29" type="priority"/>
    <node id="-157031316#1.23" x="1554.13" y="4161.57" type="priority"/>
    <node id="-157167355#0.74" x="2472.06" y="1165.39" type="priority"/>
    <node id="-157167355#3.43" x="2473.20" y="1285.81" type="priority"/>
    <node id="-157167355#3.5" x="2473.64" y="1324.33" type="priority"/>
    <node id="-157167357#2.13" x="3218.50" y="989.08" type="priority"/>
    <node id="-157167357#2.50" x="3255.20" y="989.12" type="priority"/>
    <node id="-157167357#2.53" x="3257.70" y="989.12" type="priority"/>
    <node id="-157167357#2.60" x="3264.76" y="989.13" type="priority"/>
    <node id="-157167357#2.7" x="3212.32" y="989.07" type="priority"/>
    <node id="-157167357#4.4" x="3111.91" y="988.97" type="priority"/>
    <node id="-157167357#4.51" x="3159.01" y="989.03" type="priority"/>
    <node id="-157167357#4.92" x="3199.62" y="989.06" type="priority"/>
    <node id="-157167357#6.43" x="3059.46" y="988.91" type="priority"/>
    <node id="-157167357#6.85" x="3102.34" y="988.96" type="priority"/>
    <node id="-157172040#2.141" x="3113.83" y="660.05" type="priority"/>
    <node id="-157172040#2.70" x="3115.36" y="730.95" type="priority"/>
    <node id="-157172053#1.46" x="3056.34" y="604.45" type="priority"/>
    <node id="-157172053#2.13" x="2953.38" y="583.41" type="priority"/>
    <node id="-157172053#2.25" x="2965.43" y="586.57" type="priority"/>
    <node id="-157172053#2.51" x="2987.44" y="600.95" type="priority"/>
    <node id="-157172053#2.64" x="2999.09" y="604.14" type="priority"/>
    <node id="-157172068.16" x="2940.27" y="500.35" type="priority"/>
    <node id="-157172068.3" x="2943.16" y="487.50" type="priority"/>
    <node id="-157172068.7" x="2941.45" y="491.19" type="priority"/>
    <node id="-157279807#1.11" x="2357.36" y="5073.28" type="priority"/>
    <node id="-157279807#1.20" x="2361.88" y="5065.20" type="priority"/>
    <node id="-157279807#1.3" x="2352.35" y="5080.14" type="priority"/>
    <node id="-157279807#1.33" x="2363.22" y="5053.14" type="priority"/>
    <node id="-157279807#1.40" x="2362.30" y="5046.13" type="priority"/>
    <node id="-157279815.15" x="1899.31" y="5321.00" type="priority"/>
    <node id="-157279815.25" x="1892.20" y="5327.98" type="priority"/>
    <node id="-157279815.35" x="1882.88" y="5330.27" type="priority"/>
    <node id="-157279815.41" x="1876.20" y="5330.71" type="priority"/>
    <node id="-157279815.51" x="1867.16" y="5326.74" type="priority"/>
    <node id="-157279815.61" x="1859.81" y="5320.95" type="priority"/>
    <node id="-157279815.74" x="1851.34" y="5310.35" type="priority"/>
    <node id="-157279815.8" x="1903.61" y="5315.16" type="priority"/>
    <node id="-157281347#2.14" x="3651.88" y="5296.63" type="priority"/>
    <node id="-157281347#2.27" x="3649.22" y="5283.99" type="priority"/>
    <node id="-157281347#2.50" x="3649.35" y="5260.88" type="priority"/>
    <node id="-157281347#2.55" x="3649.44" y="5256.22" type="priority"/>
    <node id="-157281347#2.82" x="3649.39" y="5229.16" type="priority"/>
    <node id="-157281347#2.86" x="3650.73" y="5224.99" type="priority"/>
    <node id="-157281347#2.91" x="3653.58" y="5221.33" type="priority"/>
    <node id="-157281347#3.205" x="3683.59" y="5369.00" type="priority"/>
    <node id="-157281347#3.215" x="3682.19" y="5359.52" type="priority"/>
    <node id="-157281347#3.225" x="3677.98" y="5349.76" type="priority"/>
    <node id="-157284449#0.177" x="1405.37" y="4672.78" type="priority"/>
    <node id="-157284449#0.200" x="1405.07" y="4650.39" type="priority"/>
    <node id="-157284449#3.5" x="1404.35" y="5232.57" type="priority"/>
    <node id="-158123767#7.122" x="2164.32" y="1371.10" type="priority"/>
    <node id="-158123767#7.160" x="2125.81" y="1371.10" type="priority"/>
    <node id="-158123767#7.162" x="2124.67" y="1371.10" type="priority"/>
    <node id="-158123767#7.32" x="2254.08" y="1371.10" type="priority"/>
    <node id="-158123767#7.38" x="2248.56" y="1370.94" type="priority"/>
    <node id="-158123767#7.49" x="2236.99" y="1371.10" type="priority"/>
    <node id="-158123767#7.57" x="2229.54" y="1371.10" type="priority"/>
    <node id="-158123767#7.6" x="2280.54" y="1370.99" type="priority"/>
    <node id="-158123767#7.86" x="2200.29" y="1371.10" type="priority"/>
    <node id="-158123767#7.98" x="2188.61" y="1371.10" type="priority"/>
    <node id="-158123772#1.47" x="2696.82" y="1089.80" type="priority"/>
    <node id="-158612542#10.47" x="599.64" y="3212.76" type="priority"/>
    <node id="-158612542#10.50" x="599.69" y="3210.27" type="priority"/>
    <node id="-158612542#10.89" x="600.43" y="3171.18" type="priority"/>
    <node id="-158612542#12.54" x="597.26" y="3337.65" type="priority"/>
    <node id="-158612542#12.55" x="597.27" y="3336.57" type="priority"/>
    <node id="-158612542#15.111" x="595.87" y="3410.17" type="priority"/>
    <node id="-158612542#15.93" x="595.52" y="3428.73" type="priority"/>
    <node id="-158612542#5.11" x="603.84" y="2992.07" type="priority"/>
    <node id="-158612542#5.114" x="605.77" y="2889.22" type="priority"/>
    <node id="-158612542#5.64" x="604.85" y="2939.01" type="priority"/>
    <node id="-158612542#5.73" x="605.02" y="2930.46" type="priority"/>
    <node id="-158612542#5.81" x="605.18" y="2921.53" type="priority"/>
    <node id="-158612542#7.121" x="603.47" y="3011.33" type="priority"/>
    <node id="-158612542#7.55" x="602.21" y="3077.79" type="priority"/>
    <node id="-158612542#7.79" x="602.67" y="3053.55" type="priority"/>
    <node id="-158782264#2.43" x="2202.22" y="5711.78" type="priority"/>
    <node id="-158782264#2.81" x="2201.73" y="5673.63" type="priority"/>
    <node id="-158782264#5.45" x="2203.22" y="5799.58" type="priority"/>
    <node id="-158782264#5.5" x="2203.62" y="5839.81" type="priority"/>
    <node id="-158882495#1.91" x="900.25" y="3526.76" type="priority"/>
    <node id="-158882505#1.37" x="803.47" y="3882.68" type="priority"/>
    <node id="-158882505#5.47" x="1029.98" y="3883.38" type="priority"/>
    <node id="-158882511#2.44" x="875.28" y="4138.66" type="priority"/>
    <node id="-158882511#7.20" x="1136.37" y="4140.10" type="priority"/>
    <node id="-158882511#7.33" x="1123.93" y="4140.08" type="priority"/>
    <node id="-158882511#9.24" x="1284.12" y="4140.05" type="priority"/>
    <node id="-158882517#7.10" x="1302.19" y="4013.15" type="priority"/>
    <node id="-158882517#7.11" x="1300.52" y="4012.44" type="priority"/>
    <node id="-158882517#7.13" x="1298.72" y="4012.14" type="priority"/>
    <node id="-158882517#7.33" x="1279.17" y="4012.07" type="priority"/>
    <node id="-158882517#7.6" x="1304.82" y="4015.63" type="priority"/>
    <node id="-158882517#7.8" x="1303.66" y="4014.23" type="priority"/>
    <node id="-158882561#2.11" x="757.66" y="4248.91" type="priority"/>
    <node id="-158882561#2.28" x="761.58" y="4233.02" type="priority"/>
    <node id="-158882561#2.46" x="761.72" y="4214.73" type="priority"/>
    <node id="-158882561#2.60" x="761.84" y="4200.79" type="priority"/>
    <node id="-159118040#3.13" x="709.08" y="3393.83" type="priority"/>
    <node id="-159118040#3.53" x="748.75" y="3394.35" type="priority"/>
    <node id="-159118040#3.6" x="702.55" y="3393.74" type="priority"/>
    <node id="-159928322.21" x="3561.10" y="5614.50" type="priority"/>
    <node id="-159928322.34" x="3548.24" y="5617.09" type="priority"/>
    <node id="-159928322.48" x="3534.28" y="5619.59" type="priority"/>
    <node id="-159937059#1.100" x="2316.95" y="5027.89" type="priority"/>
    <node id="-159937059#1.51" x="2323.30" y="4979.77" type="priority"/>
    <node id="-159937059#1.77" x="2323.69" y="5006.69" type="priority"/>
    <node id="-159937059#1.88" x="2322.07" y="5016.86" type="priority"/>
    <node id="-159937059#1.94" x="2319.74" y="5022.49" type="priority"/>
    <node id="-159937059#3.13" x="2322.92" y="4746.79" type="priority"/>
    <node id="-159937059#3.5" x="2324.50" y="4739.55" type="priority"/>
    <node id="-159937581#1.123" x="3450.84" y="5822.12" type="priority"/>
    <node id="-159937581#1.134" x="3447.84" y="5832.67" type="priority"/>
    <node id="-159937581#1.144" x="3442.40" y="5841.08" type="priority"/>
    <node id="-159937581#1.158" x="3431.98" y="5851.27" type="priority"/>
    <node id="-159937581#1.169" x="3423.16" y="5856.85" type="priority"/>
    <node id="-159937581#1.183" x="3409.72" y="5859.82" type="priority"/>
    <node id="-159937581#1.19" x="3455.34" y="5718.10" type="priority"/>
    <node id="-159937581#1.26" x="3453.16" y="5725.72" type="priority"/>
    <node id="-159937581#1.9" x="3460.85" y="5709.79" type="priority"/>
    <node id="-160425978#1.111" x="3092.03" y="5741.04" type="priority"/>
    <node id="-160425978#1.122" x="3098.50" y="5732.87" type="priority"/>
    <node id="-160425978#1.134" x="3106.07" y="5722.42" type="priority"/>
    <node id="-160425978#1.145" x="3111.34" y="5713.40" type="priority"/>
    <node id="-160425978#1.155" x="3115.73" y="5704.49" type="priority"/>
    <node id="-160425978#1.23" x="3016.71" y="5783.22" type="priority"/>
    <node id="-160425978#1.44" x="3036.75" y="5777.62" type="priority"/>
    <node id="-160425978#1.55" x="3046.35" y="5773.50" type="priority"/>
    <node id="-160425978#1.67" x="3057.42" y="5767.99" type="priority"/>
    <node id="-160425978#1.79" x="3067.65" y="5761.96" type="priority"/>
    <node id="-160425978#1.90" x="3076.48" y="5755.26" type="priority"/>
    <node id="-160425978#1.97" x="3081.77" y="5750.99" type="priority"/>
    <node id="-160425978#2.12" x="2957.30" y="5782.45" type="priority"/>
    <node id="-160425978#2.26" x="2971.74" y="5784.58" type="priority"/>
    <node id="-160425978#2.5" x="2950.36" y="5782.13" type="priority"/>
    <node id="-160425989#2.105" x="3051.59" y="5857.78" type="priority"/>
    <node id="-160425989#2.122" x="3038.80" y="5846.09" type="priority"/>
    <node id="-160425989#2.16" x="3129.32" y="5901.17" type="priority"/>
    <node id="-160425989#2.178" x="3001.14" y="5805.25" type="priority"/>
    <node id="-160425989#2.189" x="2994.78" y="5796.19" type="priority"/>
    <node id="-160425989#2.62" x="3088.77" y="5878.53" type="priority"/>
    <node id="-160425989#4.32" x="3146.16" y="5910.67" type="priority"/>
    <node id="-160426010#12.102" x="2930.27" y="5609.83" type="priority"/>
    <node id="-160426010#12.122" x="2928.53" y="5589.24" type="priority"/>
    <node id="-160426010#12.141" x="2930.62" y="5571.26" type="priority"/>
    <node id="-160426010#12.180" x="2934.50" y="5531.46" type="priority"/>
    <node id="-160426010#12.8" x="2966.06" y="5696.49" type="priority"/>
    <node id="-160426010#12.81" x="2935.89" y="5629.80" type="priority"/>
    <node id="-160426010#12.87" x="2934.24" y="5623.93" type="priority"/>
    <node id="-160426010#13.17" x="2957.82" y="5770.78" type="priority"/>
    <node id="-160426010#13.32" x="2965.67" y="5757.99" type="priority"/>
    <node id="-160426010#13.45" x="2970.29" y="5745.19" type="priority"/>
    <node id="-160426010#13.57" x="2972.34" y="5733.63" type="priority"/>
    <node id="-160426010#13.71" x="2970.52" y="5720.11" type="priority"/>
    <node id="-160426010#5.102" x="2920.51" y="4693.13" type="priority"/>
    <node id="-160426010#5.114" x="2920.24" y="4681.08" type="priority"/>
    <node id="-160426010#5.132" x="2919.84" y="4663.16" type="priority"/>
    <node id="-160426010#5.27" x="2930.43" y="4765.38" type="priority"/>
    <node id="-160426010#5.37" x="2924.69" y="4757.70" type="priority"/>
    <node id="-160426010#5.40" x="2923.68" y="4754.95" type="priority"/>
    <node id="-160426010#5.45" x="2921.78" y="4749.76" type="priority"/>
    <node id="-160426010#5.67" x="2921.29" y="4727.91" type="priority"/>
    <node id="-160426010#6.107" x="2903.19" y="5249.46" type="priority"/>
    <node id="-160426010#6.121" x="2903.24" y="5234.56" type="priority"/>
    <node id="-160426010#6.139" x="2906.77" y="5217.48" type="priority"/>
    <node id="-160426010#6.157" x="2914.02" y="5200.83" type="priority"/>
    <node id="-160426010#6.228" x="2946.19" y="5138.12" type="priority"/>
    <node id="-160426010#6.248" x="2952.17" y="5118.89" type="priority"/>
    <node id="-160426010#6.332" x="2966.59" y="5035.62" type="priority"/>
    <node id="-160426010#6.341" x="2967.44" y="5026.88" type="priority"/>
    <node id="-160426010#6.353" x="2966.37" y="5015.30" type="priority"/>
    <node id="-160426010#6.93" x="2905.71" y="5263.12" type="priority"/>
    <node id="-160426010#8.130" x="2945.81" y="5391.40" type="priority"/>
    <node id="-160426010#8.150" x="2944.06" y="5371.46" type="priority"/>
    <node id="-160426010#8.49" x="2938.44" y="5472.37" type="priority"/>
    <node id="-160426010#8.78" x="2941.06" y="5443.62" type="priority"/>
    <node id="-160426016#1.111" x="3034.61" y="4845.78" type="priority"/>
    <node id="-160426016#1.134" x="3039.76" y="4823.74" type="priority"/>
    <node id="-160426016#1.150" x="3047.63" y="4809.01" type="priority"/>
    <node id="-160426016#1.23" x="3056.67" y="4929.89" type="priority"/>
    <node id="-160426016#1.84" x="3035.31" y="4872.26" type="priority"/>
    <node id="-160426016#1.98" x="3033.73" y="4858.49" type="priority"/>
    <node id="-160426016#2.136" x="3047.01" y="5052.69" type="priority"/>
    <node id="-160426016#2.222" x="3055.28" y="4967.61" type="priority"/>
    <node id="-160426016#3.155" x="3056.64" y="5287.07" type="priority"/>
    <node id="-160426016#3.175" x="3056.14" y="5267.26" type="priority"/>
    <node id="-160426016#3.195" x="3052.40" y="5247.81" type="priority"/>
    <node id="-160426016#3.237" x="3041.05" y="5207.10" type="priority"/>
    <node id="-160426016#4.116" x="3041.67" y="5623.70" type="priority"/>
    <node id="-160426016#4.212" x="3043.48" y="5528.00" type="priority"/>
    <node id="-160426016#4.39" x="3004.97" y="5687.64" type="priority"/>
    <node id="-160426016#4.59" x="3021.85" y="5675.59" type="priority"/>
    <node id="-160426016#4.79" x="3032.96" y="5659.62" type="priority"/>
    <node id="-160426016#4.98" x="3039.57" y="5641.68" type="priority"/>
    <node id="-160426022#1.102" x="3137.39" y="5807.06" type="priority"/>
    <node id="-160426022#1.115" x="3142.66" y="5795.54" type="priority"/>
    <node id="-160426022#1.153" x="3161.01" y="5762.28" type="priority"/>
    <node id="-160426022#1.166" x="3163.72" y="5748.80" type="priority"/>
    <node id="-160426022#1.179" x="3161.25" y="5735.92" type="priority"/>
    <node id="-160426022#1.56" x="3138.91" y="5852.71" type="priority"/>
    <node id="-160426022#1.86" x="3135.96" y="5823.12" type="priority"/>
    <node id="-160432281#1.141" x="3215.95" y="1094.31" type="priority"/>
    <node id="-160432281#1.147" x="3214.55" y="1088.98" type="priority"/>
    <node id="-160432281#3.15" x="3297.69" y="1417.61" type="priority"/>
    <node id="-160432281#3.165" x="3259.95" y="1275.73" type="priority"/>
    <node id="-160432281#3.191" x="3255.96" y="1249.56" type="priority"/>
    <node id="-160432281#3.22" x="3293.11" y="1412.65" type="priority"/>
    <node id="-160432281#3.55" x="3277.25" y="1383.55" type="priority"/>
    <node id="-160432281#3.67" x="3272.58" y="1372.15" type="priority"/>
    <node id="-160432281#3.77" x="3270.61" y="1362.60" type="priority"/>
    <node id="-160432281#3.79" x="3270.27" y="1360.92" type="priority"/>
    <node id="-160552467#10.17" x="1074.95" y="4241.74" type="priority"/>
    <node id="-160552467#10.28" x="1077.62" y="4231.47" type="priority"/>
    <node id="-160552467#10.38" x="1079.00" y="4221.20" type="priority"/>
    <node id="-160552467#11.115" x="1077.83" y="4280.98" type="priority"/>
    <node id="-160552467#11.127" x="1074.06" y="4270.02" type="priority"/>
    <node id="-160552467#11.13" x="1091.00" y="4377.72" type="priority"/>
    <node id="-160552467#11.23" x="1088.52" y="4367.41" type="priority"/>
    <node id="-160552467#11.33" x="1084.73" y="4358.37" type="priority"/>
    <node id="-160552467#11.44" x="1082.24" y="4347.43" type="priority"/>
    <node id="-160552467#11.54" x="1085.56" y="4337.81" type="priority"/>
    <node id="-160552467#11.62" x="1089.64" y="4331.87" type="priority"/>
    <node id="-160552467#11.70" x="1091.64" y="4323.53" type="priority"/>
    <node id="-160552467#11.80" x="1091.08" y="4313.89" type="priority"/>
    <node id="-160552467#11.88" x="1089.22" y="4305.52" type="priority"/>
    <node id="-160552467#5.18" x="1084.08" y="3771.39" type="priority"/>
    <node id="-160552467#5.25" x="1084.27" y="3764.29" type="priority"/>
    <node id="-160552467#5.30" x="1084.41" y="3759.31" type="priority"/>
    <node id="-160552467#5.63" x="1085.28" y="3726.44" type="priority"/>
    <node id="-160552467#5.85" x="1085.90" y="3704.12" type="priority"/>
    <node id="-160552467#7.43" x="1078.10" y="3840.16" type="priority"/>
    <node id="-160552467#7.73" x="1078.42" y="3809.60" type="priority"/>
    <node id="-160552467#7.78" x="1078.92" y="3804.67" type="priority"/>
    <node id="-160624553.98" x="2735.09" y="3015.60" type="priority"/>
    <node id="-160624555.109" x="2733.37" y="2764.10" type="priority"/>
    <node id="-160624556.131" x="2740.21" y="2764.46" type="priority"/>
    <node id="-160624558#0.117" x="2748.30" y="3038.22" type="priority"/>
    <node id="-160624558#0.124" x="2746.52" y="3031.44" type="priority"/>
    <node id="-160624558#4.98" x="2748.97" y="3457.43" type="priority"/>
    <node id="-160842011#1.25" x="3206.05" y="1480.02" type="priority"/>
    <node id="-160842011#1.37" x="3205.02" y="1491.76" type="priority"/>
    <node id="-160842011#1.4" x="3209.22" y="1458.65" type="priority"/>
    <node id="-160842011#1.45" x="3205.31" y="1499.62" type="priority"/>
    <node id="-160842011#1.50" x="3206.44" y="1504.45" type="priority"/>
    <node id="-160842011#1.55" x="3208.30" y="1509.42" type="priority"/>
    <node id="-160842011#1.76" x="3218.59" y="1527.66" type="priority"/>
    <node id="-160842011#1.81" x="3220.88" y="1532.13" type="priority"/>
    <node id="-160842011#1.85" x="3221.31" y="1536.42" type="priority"/>
    <node id="-160842011#1.89" x="3220.16" y="1540.25" type="priority"/>
    <node id="-160842011#1.95" x="3216.78" y="1545.09" type="priority"/>
    <node id="-161079848#1.107" x="3096.97" y="710.47" type="priority"/>
    <node id="-161079848#1.124" x="3095.98" y="727.58" type="priority"/>
    <node id="-161079848#1.133" x="3095.45" y="736.83" type="priority"/>
    <node id="-161079848#1.162" x="3091.32" y="765.10" type="priority"/>
    <node id="-161079848#1.185" x="3089.16" y="788.24" type="priority"/>
    <node id="-161079848#1.203" x="3089.35" y="806.41" type="priority"/>
    <node id="-161079848#1.224" x="3093.29" y="826.64" type="priority"/>
    <node id="-161079848#1.250" x="3098.76" y="851.81" type="priority"/>
    <node id="-161079848#1.65" x="3098.00" y="668.66" type="priority"/>
    <node id="-164418944#3.15" x="1187.52" y="2878.59" type="priority"/>
    <node id="-164418944#3.30" x="1173.48" y="2878.48" type="priority"/>
    <node id="-164418944#3.35" x="1168.47" y="2878.43" type="priority"/>
    <node id="-164418944#3.9" x="1194.42" y="2878.64" type="priority"/>
    <node id="-164418944#7.51" x="1255.12" y="2879.81" type="priority"/>
    <node id="-164418944#7.7" x="1299.05" y="2880.35" type="priority"/>
    <node id="-164418944#7.73" x="1233.15" y="2879.34" type="priority"/>
    <node id="-164418944#7.95" x="1211.72" y="2878.88" type="priority"/>
    <node id="-164418944#7.96" x="1210.80" y="2878.86" type="priority"/>
    <node id="-165042063#1.13" x="612.94" y="2865.75" type="priority"/>
    <node id="-165042063#1.15" x="614.10" y="2867.30" type="priority"/>
    <node id="-165042063#1.3" x="608.56" y="2857.43" type="priority"/>
    <node id="-165086027#1.2" x="607.75" y="2879.17" type="priority"/>
    <node id="-165086027#1.5" x="609.11" y="2877.53" type="priority"/>
    <node id="-169511255#12.10" x="270.64" y="2283.68" type="priority"/>
    <node id="-169511255#12.35" x="284.14" y="2262.38" type="priority"/>
    <node id="-169511255#12.49" x="291.66" y="2250.52" type="priority"/>
    <node id="-169511255#12.84" x="310.31" y="2221.03" type="priority"/>
    <node id="-169511255#15.10" x="221.67" y="2361.81" type="priority"/>
    <node id="-169511255#15.84" x="261.17" y="2298.67" type="priority"/>
    <node id="-169511255#3.45" x="389.58" y="2094.97" type="priority"/>
    <node id="-169511255#3.82" x="409.21" y="2064.11" type="priority"/>
    <node id="-169511255#3.9" x="369.81" y="2126.06" type="priority"/>
    <node id="-169511255#7.26" x="329.38" y="2190.68" type="priority"/>
    <node id="-169511255#7.7" x="319.47" y="2206.55" type="priority"/>
    <node id="-169511255#7.83" x="359.51" y="2142.42" type="priority"/>
    <node id="-169511256#1.9" x="556.25" y="1813.48" type="priority"/>
    <node id="-169511256#4.43" x="608.90" y="1847.21" type="priority"/>
    <node id="-169511256#4.8" x="638.46" y="1866.01" type="priority"/>
    <node id="-169511256#4.89" x="570.60" y="1822.64" type="priority"/>
    <node id="-169730574#1.24" x="2078.37" y="3592.11" type="priority"/>
    <node id="-169730574#1.5" x="2092.04" y="3606.24" type="priority"/>
    <node id="-169730574#1.6" x="2090.82" y="3604.98" type="priority"/>
    <node id="-169917351#11.10" x="2084.84" y="1748.97" type="priority"/>
    <node id="-169917351#11.50" x="2045.15" y="1748.68" type="priority"/>
    <node id="-169917351#15.56" x="2138.04" y="1749.38" type="priority"/>
    <node id="-169917351#15.89" x="2105.55" y="1749.14" type="priority"/>
    <node id="-169917351#15.9" x="2185.61" y="1749.73" type="priority"/>
    <node id="-169917351#18.7" x="2272.34" y="1748.84" type="priority"/>
    <node id="-169917351#18.75" x="2204.30" y="1749.69" type="priority"/>
    <node id="-169917351#21.6" x="2351.26" y="1749.47" type="priority"/>
    <node id="-169917351#21.71" x="2286.51" y="1748.81" type="priority"/>
    <node id="-169917351#24.6" x="2430.98" y="1749.66" type="priority"/>
    <node id="-169917351#24.71" x="2365.58" y="1749.56" type="priority"/>
    <node id="-169917351#27.11" x="2509.66" y="1750.34" type="priority"/>
    <node id="-169917351#27.76" x="2444.62" y="1749.74" type="priority"/>
    <node id="-169917351#3.10" x="1692.35" y="1746.66" type="priority"/>
    <node id="-169917351#3.45" x="1657.06" y="1746.44" type="priority"/>
    <node id="-169917351#3.90" x="1611.86" y="1746.17" type="priority"/>
    <node id="-169917351#5.46" x="1753.43" y="1746.80" type="priority"/>
    <node id="-169917351#8.49" x="1947.59" y="1748.52" type="priority"/>
    <node id="-170683231#1.43" x="2474.76" y="4163.35" type="priority"/>
    <node id="-170683231#11.43" x="1948.74" y="4163.33" type="priority"/>
    <node id="-170683231#15.34" x="1840.87" y="4162.89" type="priority"/>
    <node id="-170683231#15.47" x="1854.25" y="4162.97" type="priority"/>
    <node id="-170683231#15.61" x="1868.49" y="4163.06" type="priority"/>
    <node id="-170683231#18.37" x="1744.66" y="4162.60" type="priority"/>