<?xml version="1.0" encoding="UTF-8"?>

<!-- generated on Sun Sep 12 15:13:35 2021 by Eclipse SUMO netconvert Version 1.8.0
<configuration xmlns:xsi="http://www.w3.org/2001/XMLSchema-instance" xsi:noNamespaceSchemaLocation="http://sumo.dlr.de/xsd/netconvertConfiguration.xsd">

    <input>
        <sumo-net-file value="seattle.net.xml"/>
    </input>

    <output>
        <plain-output-prefix value="newtry"/>
        <output.street-names value="true"/>
    </output>

    <processing>
        <geometry.min-radius.fix.railways value="false"/>
        <geometry.max-grade.fix value="false"/>
        <offset.disable-normalization value="true"/>
        <lefthand value="false"/>
    </processing>

    <junctions>
        <no-turnarounds value="true"/>
        <junctions.corner-detail value="5"/>
        <junctions.limit-turn-speed value="5.5"/>
        <rectangular-lane-cut value="false"/>
    </junctions>

    <pedestrian>
        <walkingareas value="false"/>
    </pedestrian>

    <report>
        <aggregate-warnings value="5"/>
    </report>

</configuration>
-->

<connections version="1.6" xmlns:xsi="http://www.w3.org/2001/XMLSchema-instance" xsi:noNamespaceSchemaLocation="http://sumo.dlr.de/xsd/connections_file.xsd">
    <connection from="-127697507" to="-127697507.48" fromLane="0" toLane="0"/>
    <connection from="-127697507" to="-127697507.48" fromLane="1" toLane="1"/>

    <connection from="-127697507.48" to="127697507" fromLane="1" toLane="2"/>

    <connection from="-127697509#1" to="-127697509#1.7" fromLane="0" toLane="0"/>
    <connection from="-127697509#1" to="-127697509#1.7" fromLane="1" toLane="1"/>
    <connection from="-127697509#1" to="-127697509#1.7" fromLane="2" toLane="2"/>

    <connection from="-127697509#1.7" to="-428247253#1" fromLane="0" toLane="0"/>
    <connection from="-127697509#1.7" to="-428247253#1" fromLane="1" toLane="1"/>
    <connection from="-127697509#1.7" to="-428247253#1" fromLane="2" toLane="2"/>

    <connection from="-127697509#5" to="-127697509#5.11" fromLane="0" toLane="0"/>
    <connection from="-127697509#5" to="-127697509#5.11" fromLane="1" toLane="1"/>
    <connection from="-127697509#5" to="-127697509#5.11" fromLane="2" toLane="2"/>

    <connection from="-127697509#5.11" to="-127697509#5.23" fromLane="0" toLane="0"/>
    <connection from="-127697509#5.11" to="-127697509#5.23" fromLane="1" toLane="1"/>
    <connection from="-127697509#5.11" to="-127697509#5.23" fromLane="2" toLane="2"/>

    <connection from="-127697509#5.23" to="-127697509#5.32" fromLane="0" toLane="0"/>
    <connection from="-127697509#5.23" to="-127697509#5.32" fromLane="1" toLane="1"/>
    <connection from="-127697509#5.23" to="-127697509#5.32" fromLane="2" toLane="2"/>

    <connection from="-127697509#5.32" to="-127697509#1" fromLane="0" toLane="0"/>
    <connection from="-127697509#5.32" to="-127697509#1" fromLane="1" toLane="1"/>
    <connection from="-127697509#5.32" to="-127697509#1" fromLane="2" toLane="2"/>
    <connection from="-127697509#5.32" to="-22917668#3" fromLane="2" toLane="0"/>
    <connection from="-127697509#5.32" to="127697509#2" fromLane="2" toLane="2"/>

    <connection from="-131641384" to="131641384" fromLane="0" toLane="0"/>

    <connection from="-13721473#2" to="-13721473#2.9" fromLane="0" toLane="0"/>

    <connection from="-13721473#2.14" to="-13721473#2.16" fromLane="0" toLane="0"/>

    <connection from="-13721473#2.16" to="-13721473#2.92" fromLane="0" toLane="0"/>

    <connection from="-13721473#2.9" to="-13721473#2.14" fromLane="0" toLane="0"/>

    <connection from="-13721473#2.92" to="6477649#6" fromLane="0" toLane="0"/>
    <connection from="-13721473#2.92" to="-500021854#3" fromLane="0" toLane="0"/>
    <connection from="-13721473#2.92" to="-6477649#5" fromLane="0" toLane="0"/>
    <connection from="-13721473#2.92" to="13721473#0" fromLane="0" toLane="0"/>

    <connection from="-13726934#1" to="-13726934#1.5" fromLane="0" toLane="0"/>
    <connection from="-13726934#1" to="-13726934#1.5" fromLane="1" toLane="1"/>
    <connection from="-13726934#1" to="-13726934#1.5" fromLane="2" toLane="2"/>

    <connection from="-13726934#1.5" to="-428227808" fromLane="0" toLane="0"/>
    <connection from="-13726934#1.5" to="-428227808" fromLane="1" toLane="1"/>

    <connection from="-14374224#3" to="-14374224#3.37" fromLane="0" toLane="0"/>

    <connection from="-14374224#3.37" to="-14374224#3.41" fromLane="0" toLane="0"/>

    <connection from="-14374224#3.41" to="-14374224#3.85" fromLane="0" toLane="0"/>

    <connection from="-14374224#3.85" to="295783215#1" fromLane="0" toLane="0"/>
    <connection from="-14374224#3.85" to="-295783215#0" fromLane="0" toLane="0"/>
    <connection from="-14374224#3.85" to="14374224#0" fromLane="0" toLane="0"/>

    <connection from="-14374224#8" to="-14374224#8.8" fromLane="0" toLane="0"/>

    <connection from="-14374224#8.45" to="-14374224#8.76" fromLane="0" toLane="0"/>

    <connection from="-14374224#8.76" to="-14374224#8.86" fromLane="0" toLane="0"/>

    <connection from="-14374224#8.8" to="-14374224#8.45" fromLane="0" toLane="0"/>

    <connection from="-14374224#8.86" to="256997441#3" fromLane="0" toLane="0"/>
    <connection from="-14374224#8.86" to="-14374224#3" fromLane="0" toLane="0"/>
    <connection from="-14374224#8.86" to="-256997441#2" fromLane="0" toLane="0"/>
    <connection from="-14374224#8.86" to="14374224#4" fromLane="0" toLane="0"/>

    <connection from="-149669465#1" to="-149669465#1.7" fromLane="0" toLane="0"/>
    <connection from="-149669465#1" to="-149669465#1.7" fromLane="1" toLane="1"/>

    <connection from="-149669465#1.55" to="-149669465#1.62" fromLane="0" toLane="0"/>
    <connection from="-149669465#1.55" to="-149669465#1.62" fromLane="1" toLane="1"/>

    <connection from="-149669465#1.62" to="-149669465#1.69" fromLane="0" toLane="0"/>
    <connection from="-149669465#1.62" to="-149669465#1.69" fromLane="1" toLane="1"/>

    <connection from="-149669465#1.69" to="-149669465#1.75" fromLane="0" toLane="0"/>
    <connection from="-149669465#1.69" to="-149669465#1.75" fromLane="1" toLane="1"/>

    <connection from="-149669465#1.7" to="-149669465#1.55" fromLane="0" toLane="0"/>
    <connection from="-149669465#1.7" to="-149669465#1.55" fromLane="1" toLane="1"/>

    <connection from="-149669465#1.75" to="149669465#0" fromLane="1" toLane="1"/>

    <connection from="-149669465#4" to="-149669465#4.9" fromLane="0" toLane="0"/>
    <connection from="-149669465#4" to="-149669465#4.9" fromLane="1" toLane="1"/>

    <connection from="-149669465#4.75" to="6361203#9" fromLane="0" toLane="0"/>
    <connection from="-149669465#4.75" to="-149669465#1" fromLane="0" toLane="0"/>
    <connection from="-149669465#4.75" to="-149669465#1" fromLane="1" toLane="1"/>
    <connection from="-149669465#4.75" to="-6361203#8" fromLane="1" toLane="0"/>
    <connection from="-149669465#4.75" to="149669465#2" fromLane="1" toLane="1"/>

    <connection from="-149669465#4.9" to="-149669465#4.75" fromLane="0" toLane="0"/>
    <connection from="-149669465#4.9" to="-149669465#4.75" fromLane="1" toLane="1"/>

    <connection from="-149669465#8" to="-149669465#8.8" fromLane="0" toLane="0"/>
    <connection from="-149669465#8" to="-149669465#8.8" fromLane="1" toLane="1"/>

    <connection from="-149669465#8.44" to="-149669465#8.51" fromLane="0" toLane="0"/>
    <connection from="-149669465#8.44" to="-149669465#8.51" fromLane="1" toLane="1"/>

    <connection from="-149669465#8.51" to="-149669465#8.75" fromLane="0" toLane="0"/>
    <connection from="-149669465#8.51" to="-149669465#8.75" fromLane="1" toLane="1"/>

    <connection from="-149669465#8.75" to="6511010#9" fromLane="0" toLane="0"/>
    <connection from="-149669465#8.75" to="-149669465#4" fromLane="0" toLane="0"/>
    <connection from="-149669465#8.75" to="-149669465#4" fromLane="1" toLane="1"/>
    <connection from="-149669465#8.75" to="-6511010#8" fromLane="1" toLane="0"/>
    <connection from="-149669465#8.75" to="149669465#5" fromLane="1" toLane="1"/>

    <connection from="-149669465#8.8" to="-149669465#8.44" fromLane="0" toLane="0"/>
    <connection from="-149669465#8.8" to="-149669465#8.44" fromLane="1" toLane="1"/>

    <connection from="-157026977#1" to="-157026977#1.8" fromLane="0" toLane="0"/>

    <connection from="-157026977#1.100" to="-157026977#1.108" fromLane="0" toLane="0"/>

    <connection from="-157026977#1.108" to="-157026977#1.118" fromLane="0" toLane="0"/>

    <connection from="-157026977#1.118" to="-157026977#1.122" fromLane="0" toLane="0"/>

    <connection from="-157026977#1.122" to="-157026977#1.126" fromLane="0" toLane="0"/>

    <connection from="-157026977#1.126" to="-157026977#1.131" fromLane="0" toLane="0"/>

    <connection from="-157026977#1.131" to="-157026977#1.137" fromLane="0" toLane="0"/>

    <connection from="-157026977#1.137" to="-157026977#1.142" fromLane="0" toLane="0"/>

    <connection from="-157026977#1.14" to="-157026977#1.21" fromLane="0" toLane="0"/>

    <connection from="-157026977#1.142" to="-157026977#1.147" fromLane="0" toLane="0"/>

    <connection from="-157026977#1.147" to="-157026977#1.151" fromLane="0" toLane="0"/>

    <connection from="-157026977#1.151" to="-157026977#1.154" fromLane="0" toLane="0"/>

    <connection from="-157026977#1.154" to="-157026977#1.157" fromLane="0" toLane="0"/>

    <connection from="-157026977#1.157" to="-157026977#1.159" fromLane="0" toLane="0"/>

    <connection from="-157026977#1.159" to="-157026977#1.167" fromLane="0" toLane="0"/>

    <connection from="-157026977#1.167" to="-157026977#1.170" fromLane="0" toLane="0"/>

    <connection from="-157026977#1.170" to="-157026977#1.173" fromLane="0" toLane="0"/>

    <connection from="-157026977#1.173" to="-157026977#1.175" fromLane="0" toLane="0"/>

    <connection from="-157026977#1.175" to="-157026977#1.179" fromLane="0" toLane="0"/>

    <connection from="-157026977#1.179" to="-157026977#1.183" fromLane="0" toLane="0"/>

    <connection from="-157026977#1.183" to="-157026977#1.186" fromLane="0" toLane="0"/>

    <connection from="-157026977#1.186" to="-157026977#1.188" fromLane="0" toLane="0"/>

    <connection from="-157026977#1.188" to="-157026977#1.196" fromLane="0" toLane="0"/>

    <connection from="-157026977#1.196" to="-157026977#1.247" fromLane="0" toLane="0"/>

    <connection from="-157026977#1.21" to="-157026977#1.28" fromLane="0" toLane="0"/>

    <connection from="-157026977#1.247" to="-157026977#1.254" fromLane="0" toLane="0"/>

    <connection from="-157026977#1.254" to="-157026977#1.263" fromLane="0" toLane="0"/>

    <connection from="-157026977#1.263" to="-157026977#1.273" fromLane="0" toLane="0"/>

    <connection from="-157026977#1.273" to="-157026977#1.283" fromLane="0" toLane="0"/>

    <connection from="-157026977#1.28" to="-157026977#1.33" fromLane="0" toLane="0"/>

    <connection from="-157026977#1.283" to="-157026977#1.295" fromLane="0" toLane="0"/>

    <connection from="-157026977#1.295" to="-157026977#1.307" fromLane="0" toLane="0"/>

    <connection from="-157026977#1.307" to="-157026977#1.322" fromLane="0" toLane="0"/>

    <connection from="-157026977#1.322" to="-160426010#13" fromLane="0" toLane="0"/>
    <connection from="-157026977#1.322" to="-160425978#2" fromLane="0" toLane="0"/>
    <connection from="-157026977#1.322" to="157026976#0" fromLane="0" toLane="0"/>

    <connection from="-157026977#1.33" to="-157026977#1.37" fromLane="0" toLane="0"/>

    <connection from="-157026977#1.37" to="-157026977#1.43" fromLane="0" toLane="0"/>

    <connection from="-157026977#1.43" to="-157026977#1.48" fromLane="0" toLane="0"/>

    <connection from="-157026977#1.48" to="-157026977#1.52" fromLane="0" toLane="0"/>

    <connection from="-157026977#1.52" to="-157026977#1.58" fromLane="0" toLane="0"/>

    <connection from="-157026977#1.58" to="-157026977#1.61" fromLane="0" toLane="0"/>

    <connection from="-157026977#1.61" to="-157026977#1.64" fromLane="0" toLane="0"/>

    <connection from="-157026977#1.64" to="-157026977#1.66" fromLane="0" toLane="0"/>

    <connection from="-157026977#1.66" to="-157026977#1.69" fromLane="0" toLane="0"/>

    <connection from="-157026977#1.69" to="-157026977#1.71" fromLane="0" toLane="0"/>

    <connection from="-157026977#1.71" to="-157026977#1.76" fromLane="0" toLane="0"/>

    <connection from="-157026977#1.76" to="-157026977#1.83" fromLane="0" toLane="0"/>

    <connection from="-157026977#1.8" to="-157026977#1.14" fromLane="0" toLane="0"/>

    <connection from="-157026977#1.83" to="-157026977#1.91" fromLane="0" toLane="0"/>

    <connection from="-157026977#1.91" to="-157026977#1.100" fromLane="0" toLane="0"/>

    <connection from="-157031316#1" to="-157031316#1.23" fromLane="0" toLane="0"/>

    <connection from="-157031316#1.23" to="-6513783#7" fromLane="0" toLane="0"/>
    <connection from="-157031316#1.23" to="-170683231#20" fromLane="0" toLane="0"/>
    <connection from="-157031316#1.23" to="6513783#8" fromLane="0" toLane="0"/>
    <connection from="-157031316#1.23" to="157031316#0" fromLane="0" toLane="0"/>

    <connection from="-157167355#0" to="-157167355#0.74" fromLane="0" toLane="0"/>

    <connection from="-157167355#0.74" to="-6371720#3" fromLane="0" toLane="0"/>
    <connection from="-157167355#0.74" to="-512126021#1" fromLane="0" toLane="0"/>
    <connection from="-157167355#0.74" to="6371720#4" fromLane="0" toLane="0"/>
    <connection from="-157167355#0.74" to="157167355#0" fromLane="0" toLane="0"/>

    <connection from="-157167355#3" to="-157167355#3.5" fromLane="0" toLane="0"/>

    <connection from="-157167355#3.43" to="-6414318#3" fromLane="0" toLane="0"/>
    <connection from="-157167355#3.43" to="-157167355#0" fromLane="0" toLane="0"/>
    <connection from="-157167355#3.43" to="6414318#4" fromLane="0" toLane="0"/>
    <connection from="-157167355#3.43" to="157167355#1" fromLane="0" toLane="0"/>

    <connection from="-157167355#3.5" to="-157167355#3.43" fromLane="0" toLane="0"/>

    <connection from="-157167357#2" to="-157167357#2.7" fromLane="0" toLane="0"/>

    <connection from="-157167357#2.13" to="-157167357#2.50" fromLane="0" toLane="0"/>

    <connection from="-157167357#2.50" to="-157167357#2.53" fromLane="0" toLane="0"/>

    <connection from="-157167357#2.53" to="-157167357#2.60" fromLane="0" toLane="0"/>

    <connection from="-157167357#2.60" to="157167357#0" fromLane="0" toLane="0"/>

    <connection from="-157167357#2.7" to="-157167357#2.13" fromLane="0" toLane="0"/>

    <connection from="-157167357#4" to="-157167357#4.4" fromLane="0" toLane="0"/>

    <connection from="-157167357#4.4" to="-157167357#4.51" fromLane="0" toLane="0"/>

    <connection from="-157167357#4.51" to="-157167357#4.92" fromLane="0" toLane="0"/>

    <connection from="-157167357#4.92" to="189304070#15" fromLane="0" toLane="0"/>
    <connection from="-157167357#4.92" to="-157167357#2" fromLane="0" toLane="0"/>
    <connection from="-157167357#4.92" to="-189304070#14" fromLane="0" toLane="0"/>
    <connection from="-157167357#4.92" to="-71327099#6" fromLane="0" toLane="0"/>
    <connection from="-157167357#4.92" to="157167357#3" fromLane="0" toLane="0"/>

    <connection from="-157167357#6" to="-157167357#6.43" fromLane="0" toLane="0"/>

    <connection from="-157167357#6.43" to="-157167357#6.85" fromLane="0" toLane="0"/>

    <connection from="-157167357#6.85" to="71328338#2" fromLane="0" toLane="0"/>
    <connection from="-157167357#6.85" to="-157167357#4" fromLane="0" toLane="0"/>
    <connection from="-157167357#6.85" to="-71328338#1" fromLane="0" toLane="0"/>
    <connection from="-157167357#6.85" to="157167357#5" fromLane="0" toLane="0"/>

    <connection from="-157167357#7" to="6440158#2" fromLane="0" toLane="0"/>
    <connection from="-157167357#7" to="-157167357#6" fromLane="0" toLane="0"/>
    <connection from="-157167357#7" to="-6440158#1" fromLane="0" toLane="0"/>
    <connection from="-157167357#7" to="157167357#7" fromLane="0" toLane="0"/>

    <connection from="-157172040#0" to="-161079848#1" fromLane="0" toLane="0"/>
    <connection from="-157172040#0" to="40542493" fromLane="0" toLane="0"/>
    <connection from="-157172040#0" to="157172040#0" fromLane="0" toLane="0"/>

    <connection from="-157172040#2" to="-157172040#2.70" fromLane="0" toLane="0"/>

    <connection from="-157172040#2.141" to="-157172040#0" fromLane="0" toLane="0"/>
    <connection from="-157172040#2.141" to="189479661#0" fromLane="0" toLane="0"/>
    <connection from="-157172040#2.141" to="157172040#1" fromLane="0" toLane="0"/>

    <connection from="-157172040#2.70" to="-157172040#2.141" fromLane="0" toLane="0"/>

    <connection from="-157172040#3" to="-157172040#2" fromLane="0" toLane="0"/>
    <connection from="-157172040#3" to="6476933#0" fromLane="0" toLane="0"/>
    <connection from="-157172040#3" to="157172040#3" fromLane="0" toLane="0"/>

    <connection from="-157172053#1" to="-157172053#1.46" fromLane="0" toLane="0"/>

    <connection from="-157172053#1.46" to="157172053#0" fromLane="0" toLane="0"/>

    <connection from="-157172053#2" to="-157172053#2.13" fromLane="0" toLane="0"/>

    <connection from="-157172053#2.13" to="-157172053#2.25" fromLane="0" toLane="0"/>

    <connection from="-157172053#2.25" to="-157172053#2.51" fromLane="0" toLane="0"/>

    <connection from="-157172053#2.51" to="-157172053#2.64" fromLane="0" toLane="0"/>

    <connection from="-157172053#2.64" to="6440158#6" fromLane="0" toLane="0"/>
    <connection from="-157172053#2.64" to="-157172053#1" fromLane="0" toLane="0"/>
    <connection from="-157172053#2.64" to="-6440158#5" fromLane="0" toLane="0"/>
    <connection from="-157172053#2.64" to="157172053#2" fromLane="0" toLane="0"/>

    <connection from="-157172053#4" to="157172068" fromLane="0" toLane="0"/>
    <connection from="-157172053#4" to="-157172053#2" fromLane="0" toLane="0"/>
    <connection from="-157172053#4" to="-6371282#7" fromLane="0" toLane="0"/>
    <connection from="-157172053#4" to="157172053#4" fromLane="0" toLane="0"/>

    <connection from="-157172068" to="-157172068.3" fromLane="0" toLane="0"/>

    <connection from="-157172068.16" to="-157172053#2" fromLane="0" toLane="0"/>
    <connection from="-157172068.16" to="-6371282#7" fromLane="0" toLane="0"/>
    <connection from="-157172068.16" to="157172053#4" fromLane="0" toLane="0"/>
    <connection from="-157172068.16" to="157172068" fromLane="0" toLane="0"/>

    <connection from="-157172068.3" to="-157172068.7" fromLane="0" toLane="0"/>

    <connection from="-157172068.7" to="-157172068.16" fromLane="0" toLane="0"/>

    <connection from="-157279807#1" to="-157279807#1.3" fromLane="0" toLane="0"/>

    <connection from="-157279807#1.11" to="-157279807#1.20" fromLane="0" toLane="0"/>

    <connection from="-157279807#1.20" to="-157279807#1.33" fromLane="0" toLane="0"/>

    <connection from="-157279807#1.3" to="-157279807#1.11" fromLane="0" toLane="0"/>

    <connection from="-157279807#1.33" to="-157279807#1.40" fromLane="0" toLane="0"/>

    <connection from="-157279807#1.40" to="-40416126" fromLane="0" toLane="0"/>

    <connection from="-157279815" to="-157279815.8" fromLane="0" toLane="0"/>

    <connection from="-157279815.15" to="-157279815.25" fromLane="0" toLane="0"/>

    <connection from="-157279815.25" to="-157279815.35" fromLane="0" toLane="0"/>

    <connection from="-157279815.35" to="-157279815.41" fromLane="0" toLane="0"/>

    <connection from="-157279815.41" to="-157279815.51" fromLane="0" toLane="0"/>

    <connection from="-157279815.51" to="-157279815.61" fromLane="0" toLane="0"/>

    <connection from="-157279815.61" to="-157279815.74" fromLane="0" toLane="0"/>

    <connection from="-157279815.74" to="-620762209" fromLane="0" toLane="0"/>
    <connection from="-157279815.74" to="-6438239" fromLane="0" toLane="0"/>
    <connection from="-157279815.74" to="157279815" fromLane="0" toLane="0"/>

    <connection from="-157279815.8" to="-157279815.15" fromLane="0" toLane="0"/>

    <connection from="-157281347#2" to="-157281347#2.14" fromLane="0" toLane="0"/>

    <connection from="-157281347#2.14" to="-157281347#2.27" fromLane="0" toLane="0"/>

    <connection from="-157281347#2.27" to="-157281347#2.50" fromLane="0" toLane="0"/>

    <connection from="-157281347#2.50" to="-157281347#2.55" fromLane="0" toLane="0"/>

    <connection from="-157281347#2.55" to="-157281347#2.82" fromLane="0" toLane="0"/>

    <connection from="-157281347#2.82" to="-157281347#2.86" fromLane="0" toLane="0"/>

    <connection from="-157281347#2.86" to="-157281347#2.91" fromLane="0" toLane="0"/>

    <connection from="-157281347#2.91" to="-975126261#0" fromLane="0" toLane="0"/>
    <connection from="-157281347#2.91" to="975126261#1" fromLane="0" toLane="0"/>
    <connection from="-157281347#2.91" to="157281347#0" fromLane="0" toLane="0"/>

    <connection from="-157281347#3" to="-157281347#3.205" fromLane="0" toLane="0"/>

    <connection from="-157281347#3.205" to="-157281347#3.215" fromLane="0" toLane="0"/>

    <connection from="-157281347#3.215" to="-157281347#3.225" fromLane="0" toLane="0"/>

    <connection from="-157281347#3.225" to="-296603982#8" fromLane="0" toLane="0"/>
    <connection from="-157281347#3.225" to="-157281347#2" fromLane="0" toLane="0"/>
    <connection from="-157281347#3.225" to="157281347#3" fromLane="0" toLane="0"/>

    <connection from="-157281347#4" to="-296603985#1" fromLane="0" toLane="0"/>
    <connection from="-157281347#4" to="-157281347#3" fromLane="0" toLane="0"/>
    <connection from="-157281347#4" to="296603985#2" fromLane="0" toLane="0"/>
    <connection from="-157281347#4" to="157281347#4" fromLane="0" toLane="0"/>

    <connection from="-157281347#5" to="-6348165#0" fromLane="0" toLane="0"/>
    <connection from="-157281347#5" to="-157281347#4" fromLane="0" toLane="0"/>
    <connection from="-157281347#5" to="6348165#1" fromLane="0" toLane="0"/>
    <connection from="-157281347#5" to="157281347#5" fromLane="0" toLane="0"/>

    <connection from="-157284449#0" to="-157284449#0.177" fromLane="0" toLane="0"/>

    <connection from="-157284449#0.177" to="-157284449#0.200" fromLane="0" toLane="0"/>

    <connection from="-157284449#0.200" to="-37686291#2" fromLane="0" toLane="0"/>

    <connection from="-157284449#1" to="-242516209#1" fromLane="0" toLane="0"/>
    <connection from="-157284449#1" to="-157284449#0" fromLane="0" toLane="0"/>
    <connection from="-157284449#1" to="242516209#2" fromLane="0" toLane="0"/>
    <connection from="-157284449#1" to="157284449#1" fromLane="0" toLane="0"/>

    <connection from="-157284449#3" to="-157284449#3.5" fromLane="0" toLane="0"/>

    <connection from="-157284449#3.5" to="-6363153#0" fromLane="0" toLane="0"/>
    <connection from="-157284449#3.5" to="-157284449#1" fromLane="0" toLane="0"/>
    <connection from="-157284449#3.5" to="6363153#1" fromLane="0" toLane="0"/>
    <connection from="-157284449#3.5" to="157284449#2" fromLane="0" toLane="0"/>

    <connection from="-158123767#7" to="-158123767#7.6" fromLane="0" toLane="0"/>

    <connection from="-158123767#7.122" to="-158123767#7.160" fromLane="0" toLane="0"/>

    <connection from="-158123767#7.160" to="-158123767#7.162" fromLane="0" toLane="0"/>

    <connection from="-158123767#7.162" to="-6461236#5" fromLane="0" toLane="0"/>
    <connection from="-158123767#7.162" to="-965874292#14" fromLane="0" toLane="0"/>
    <connection from="-158123767#7.162" to="-428247272#1" fromLane="0" toLane="1"/>
    <connection from="-158123767#7.162" to="158123767#0" fromLane="0" toLane="0"/>

    <connection from="-158123767#7.32" to="-158123767#7.38" fromLane="0" toLane="0"/>

    <connection from="-158123767#7.38" to="-158123767#7.49" fromLane="0" toLane="0"/>

    <connection from="-158123767#7.49" to="-158123767#7.57" fromLane="0" toLane="0"/>

    <connection from="-158123767#7.57" to="-158123767#7.86" fromLane="0" toLane="0"/>

    <connection from="-158123767#7.6" to="-158123767#7.32" fromLane="0" toLane="0"/>

    <connection from="-158123767#7.86" to="-158123767#7.98" fromLane="0" toLane="0"/>

    <connection from="-158123767#7.98" to="-158123767#7.122" fromLane="0" toLane="0"/>

    <connection from="-158123769#1" to="-460418982#3" fromLane="0" toLane="0"/>
    <connection from="-158123769#1" to="22917676#1" fromLane="0" toLane="0"/>
    <connection from="-158123769#1" to="158123769#1" fromLane="0" toLane="0"/>

    <connection from="-158123772#1" to="-158123772#1.47" fromLane="0" toLane="0"/>

    <connection from="-158123772#1.47" to="158123772#0" fromLane="0" toLane="0"/>

    <connection from="-158123772#2" to="-6354836#6" fromLane="0" toLane="0"/>
    <connection from="-158123772#2" to="-158123772#1" fromLane="0" toLane="0"/>
    <connection from="-158123772#2" to="6354836#7" fromLane="0" toLane="0"/>
    <connection from="-158123772#2" to="158123772#2" fromLane="0" toLane="0"/>

    <connection from="-158612542#10" to="-158612542#10.47" fromLane="0" toLane="0"/>

    <connection from="-158612542#10.47" to="-158612542#10.50" fromLane="0" toLane="0"/>

    <connection from="-158612542#10.50" to="-158612542#10.89" fromLane="0" toLane="0"/>

    <connection from="-158612542#10.89" to="-6415868#5" fromLane="0" toLane="0"/>
    <connection from="-158612542#10.89" to="-158612542#7" fromLane="0" toLane="0"/>
    <connection from="-158612542#10.89" to="723013877" fromLane="0" toLane="0"/>
    <connection from="-158612542#10.89" to="158612542#8" fromLane="0" toLane="0"/>

    <connection from="-158612542#12" to="-158612542#12.54" fromLane="0" toLane="0"/>

    <connection from="-158612542#12.54" to="-158612542#12.55" fromLane="0" toLane="0"/>

    <connection from="-158612542#12.55" to="-6343952#4" fromLane="0" toLane="0"/>
    <connection from="-158612542#12.55" to="-158612542#10" fromLane="0" toLane="0"/>
    <connection from="-158612542#12.55" to="158612542#11" fromLane="0" toLane="0"/>

    <connection from="-158612542#15" to="-158612542#15.93" fromLane="0" toLane="0"/>

    <connection from="-158612542#15.111" to="-6430737#2" fromLane="0" toLane="0"/>
    <connection from="-158612542#15.111" to="-158612542#12" fromLane="0" toLane="0"/>
    <connection from="-158612542#15.111" to="158612542#13" fromLane="0" toLane="0"/>

    <connection from="-158612542#15.93" to="-158612542#15.111" fromLane="0" toLane="0"/>

    <connection from="-158612542#5" to="-158612542#5.11" fromLane="0" toLane="0"/>

    <connection from="-158612542#5.11" to="-158612542#5.64" fromLane="0" toLane="0"/>

    <connection from="-158612542#5.114" to="912290518#0" fromLane="0" toLane="0"/>
    <connection from="-158612542#5.114" to="-165086027#1" fromLane="0" toLane="0"/>
    <connection from="-158612542#5.114" to="158612542#0" fromLane="0" toLane="0"/>

    <connection from="-158612542#5.64" to="-158612542#5.73" fromLane="0" toLane="0"/>

    <connection from="-158612542#5.73" to="-158612542#5.81" fromLane="0" toLane="0"/>

    <connection from="-158612542#5.81" to="-158612542#5.114" fromLane="0" toLane="0"/>

    <connection from="-158612542#7" to="-158612542#7.55" fromLane="0" toLane="0"/>

    <connection from="-158612542#7.121" to="-6447455#1" fromLane="0" toLane="0"/>
    <connection from="-158612542#7.121" to="-158612542#5" fromLane="0" toLane="0"/>
    <connection from="-158612542#7.121" to="6447455#2" fromLane="0" toLane="0"/>
    <connection from="-158612542#7.121" to="158612542#6" fromLane="0" toLane="0"/>

    <connection from="-158612542#7.55" to="-158612542#7.79" fromLane="0" toLane="0"/>

    <connection from="-158612542#7.79" to="-158612542#7.121" fromLane="0" toLane="0"/>

    <connection from="-158782264#2" to="-158782264#2.43" fromLane="0" toLane="0"/>

    <connection from="-158782264#2.43" to="-158782264#2.81" fromLane="0" toLane="0"/>

    <connection from="-158782264#2.81" to="-6484877#1" fromLane="0" toLane="0"/>
    <connection from="-158782264#2.81" to="-7978478#1" fromLane="0" toLane="0"/>
    <connection from="-158782264#2.81" to="6484877#2" fromLane="0" toLane="0"/>
    <connection from="-158782264#2.81" to="158782264#0" fromLane="0" toLane="0"/>

    <connection from="-158782264#5" to="-158782264#5.5" fromLane="0" toLane="0"/>

    <connection from="-158782264#5.45" to="-6502510" fromLane="0" toLane="0"/>
    <connection from="-158782264#5.45" to="-158782264#2" fromLane="0" toLane="0"/>
    <connection from="-158782264#5.45" to="158782264#3" fromLane="0" toLane="0"/>

    <connection from="-158782264#5.5" to="-158782264#5.45" fromLane="0" toLane="0"/>

    <connection from="-158882495#1" to="-158882495#1.91" fromLane="0" toLane="0"/>

    <connection from="-158882495#1.91" to="6346526#0" fromLane="0" toLane="0"/>
    <connection from="-158882495#1.91" to="-65588084#2" fromLane="0" toLane="0"/>
    <connection from="-158882495#1.91" to="-816616072#10" fromLane="0" toLane="0"/>
    <connection from="-158882495#1.91" to="158882495#0" fromLane="0" toLane="0"/>

    <connection from="-158882505#1" to="-158882505#1.37" fromLane="0" toLane="0"/>

    <connection from="-158882505#1.37" to="-158882558" fromLane="0" toLane="0"/>
    <connection from="-158882505#1.37" to="621283351#0" fromLane="0" toLane="0"/>
    <connection from="-158882505#1.37" to="-8071890#1" fromLane="0" toLane="0"/>
    <connection from="-158882505#1.37" to="158882505#0" fromLane="0" toLane="0"/>

    <connection from="-158882505#2" to="6368665#2" fromLane="0" toLane="0"/>
    <connection from="-158882505#2" to="-158882505#1" fromLane="0" toLane="0"/>
    <connection from="-158882505#2" to="-6368665#1" fromLane="0" toLane="0"/>
    <connection from="-158882505#2" to="158882505#2" fromLane="0" toLane="0"/>

    <connection from="-158882505#3" to="6346524#1" fromLane="0" toLane="0"/>
    <connection from="-158882505#3" to="-158882505#2" fromLane="0" toLane="0"/>
    <connection from="-158882505#3" to="-6346524#0" fromLane="0" toLane="0"/>