<?xml version="1.0" encoding="UTF-8"?>

<!-- generated on Tue Jan 25 14:45:34 2022 by Eclipse SUMO netconvert Version 1.8.0
<configuration xmlns:xsi="http://www.w3.org/2001/XMLSchema-instance" xsi:noNamespaceSchemaLocation="http://sumo.dlr.de/xsd/netconvertConfiguration.xsd">

    <input>
        <sumo-net-file value="seattle.net.xml"/>
    </input>

    <output>
        <plain-output-prefix value="temp"/>
        <output.street-names value="true"/>
    </output>

    <processing>
        <geometry.min-radius.fix.railways value="false"/>
        <geometry.max-grade.fix value="false"/>
        <offset.disable-normalization value="true"/>
        <lefthand value="false"/>
    </processing>

    <junctions>
        <no-turnarounds value="true"/>
        <junctions.corner-detail value="5"/>
        <junctions.limit-turn-speed value="5.5"/>
        <rectangular-lane-cut value="false"/>
    </junctions>

    <pedestrian>
        <walkingareas value="false"/>
    </pedestrian>

    <report>
        <aggregate-warnings value="5"/>
    </report>

</configuration>
-->

<tlLogics version="1.6" xmlns:xsi="http://www.w3.org/2001/XMLSchema-instance" xsi:noNamespaceSchemaLocation="http://sumo.dlr.de/xsd/tllogic_file.xsd">
    <tlLogic id="246768814" type="actuated" programID="0" offset="0">
        <phase duration="42" state="rrrrGGGGgGGGgg" minDur="5" maxDur="50"/>
        <phase duration="3"  state="rrrryyyyyyyyyy"/>
        <phase duration="42" state="GGGgGrrrrrrrrr" minDur="5" maxDur="50"/>
        <phase duration="3"  state="yyyyyrrrrrrrrr"/>
    </tlLogic>
    <tlLogic id="2524926759" type="actuated" programID="0" offset="0">
        <phase duration="82" state="GGgGGg" minDur="5" maxDur="50"/>
        <phase duration="3"  state="yyyyyy"/>
        <phase duration="5"  state="rrrrrr"/>
    </tlLogic>
    <tlLogic id="2706300474" type="actuated" programID="0" offset="0">
        <phase duration="42" state="rrrrGGGggrrrrGGGgg" minDur="5" maxDur="50"/>
        <phase duration="3"  state="rrrryyyyyrrrryyyyy"/>
        <phase duration="42" state="GGggrrrrrGGggrrrrr" minDur="5" maxDur="50"/>
        <phase duration="3"  state="yyyyrrrrryyyyrrrrr"/>
    </tlLogic>
    <tlLogic id="30003684" type="actuated" programID="0" offset="0">
        <phase duration="42" state="gGG" minDur="5" maxDur="50"/>
        <phase duration="3"  state="yyy"/>
        <phase duration="42" state="rGG" minDur="5" maxDur="50"/>
        <phase duration="3"  state="ryy"/>
    </tlLogic>
    <tlLogic id="30345319" type="actuated" programID="0" offset="0">
        <phase duration="42" state="rrrGGgGgg" minDur="5" maxDur="50"/>
        <phase duration="3"  state="rrryyyyyy"/>
        <phase duration="42" state="GGgGrrrrr" minDur="5" maxDur="50"/>
        <phase duration="3"  state="yyyyrrrrr"/>
    </tlLogic>
    <tlLogic id="53062785" type="actuated" programID="0" offset="0">
        <phase duration="33" state="GGggrrrrGGggrrrr" minDur="5" maxDur="50"/>
        <phase duration="3"  state="yyggrrrryyggrrrr"/>
        <phase duration="6"  state="rrGGrrrrrrGGrrrr" minDur="5" maxDur="50"/>
        <phase duration="3"  state="rryyrrrrrryyrrrr"/>
        <phase duration="33" state="rrrrGGggrrrrGGgg" minDur="5" maxDur="50"/>
        <phase duration="3"  state="rrrryyggrrrryygg"/>
        <phase duration="6"  state="rrrrrrGGrrrrrrGG" minDur="5" maxDur="50"/>
        <phase duration="3"  state="rrrrrryyrrrrrryy"/>
    </tlLogic>
    <tlLogic id="53062787" type="actuated" programID="0" offset="0">
        <phase duration="42" state="rrrrGGggrrrrGGgg" minDur="5" maxDur="50"/>
        <phase duration="3"  state="rrrryyyyrrrryyyy"/>
        <phase duration="42" state="GGggrrrrGGggrrrr" minDur="5" maxDur="50"/>
        <phase duration="3"  state="yyyyrrrryyyyrrrr"/>
    </tlLogic>
    <tlLogic id="53062792" type="actuated" programID="0" offset="0">
        <phase duration="42" state="GGggrrrrGGgrrrr" minDur="5" maxDur="50"/>
        <phase duration="3"  state="yyyyrrrryyyrrrr"/>
        <phase duration="42" state="rrrrGGggrrrGGgg" minDur="5" maxDur="50"/>
        <phase duration="3"  state="rrrryyyyrrryyyy"/>
    </tlLogic>
    <tlLogic id="53062801" type="actuated" programID="0" offset="0">
        <phase duration="42" state="GGGggrrrrGGGggrrrr" minDur="5" maxDur="50"/>
        <phase duration="3"  state="yyyyyrrrryyyyyrrrr"/>
        <phase duration="42" state="rrrrrGGggrrrrrGGgg" minDur="5" maxDur="50"/>
        <phase duration="3"  state="rrrrryyyyrrrrryyyy"/>
    </tlLogic>
    <tlLogic id="53062811" type="actuated" programID="0" offset="0">
        <phase duration="38" state="rrrrGGggrrrrGGgg" minDur="5" maxDur="50"/>
        <phase duration="3"  state="rrrryyggrrrryygg"/>
        <phase duration="6"  state="rrrrrrGGrrrrrrGG" minDur="5" maxDur="50"/>
        <phase duration="3"  state="rrrrrryyrrrrrryy"/>
        <phase duration="37" state="GGggrrrrGGggrrrr" minDur="5" maxDur="50"/>
        <phase duration="3"  state="yyyyrrrryyyyrrrr"/>
    </tlLogic>
    <tlLogic id="53068790" type="actuated" programID="0" offset="0">
        <phase duration="42" state="GGgGGgrr" minDur="5" maxDur="50"/>
        <phase duration="3"  state="yyyyyyrr"/>
        <phase duration="42" state="rrrrrrGG" minDur="5" maxDur="50"/>
        <phase duration="3"  state="rrrrrryy"/>
    </tlLogic>
    <tlLogic id="53068959" type="actuated" programID="0" offset="0">
        <phase duration="42" state="rrrrGGggrrrGGgg" minDur="5" maxDur="50"/>
        <phase duration="3"  state="rrrryyyyrrryyyy"/>
        <phase duration="42" state="GGggrrrrGGgrrrr" minDur="5" maxDur="50"/>
        <phase duration="3"  state="yyyyrrrryyyrrrr"/>
    </tlLogic>
    <tlLogic id="53068963" type="actuated" programID="0" offset="0">
        <phase duration="42" state="GGggrrrGGGg" minDur="5" maxDur="50"/>
        <phase duration="3"  state="yyyyrrryyyy"/>
        <phase duration="42" state="rrrrGGgGrrr" minDur="5" maxDur="50"/>
        <phase duration="3"  state="rrrryyyyrrr"/>
    </tlLogic>
    <tlLogic id="53070522" type="actuated" programID="0" offset="0">
        <phase duration="42" state="GGGggrrrrGGGggrrrr" minDur="5" maxDur="50"/>
        <phase duration="3"  state="yyyyyrrrryyyyyrrrr"/>
        <phase duration="42" state="rrrrrGGggrrrrrGGgg" minDur="5" maxDur="50"/>
        <phase duration="3"  state="rrrrryyyyrrrrryyyy"/>
    </tlLogic>
    <tlLogic id="53070531" type="actuated" programID="0" offset="0">
        <phase duration="38" state="GGGggrrrrGGGggrrrr" minDur="5" maxDur="50"/>
        <phase duration="3"  state="yyyggrrrryyyggrrrr"/>
        <phase duration="6"  state="rrrGGrrrrrrrGGrrrr" minDur="5" maxDur="50"/>
        <phase duration="3"  state="rrryyrrrrrrryyrrrr"/>
        <phase duration="37" state="rrrrrGGggrrrrrGGgg" minDur="5" maxDur="50"/>
        <phase duration="3"  state="rrrrryyyyrrrrryyyy"/>
    </tlLogic>
    <tlLogic id="53070534" type="actuated" programID="0" offset="0">
        <phase duration="42" state="GGGggrrrrGGggrrrr" minDur="5" maxDur="50"/>
        <phase duration="3"  state="yyyyyrrrryyyyrrrr"/>
        <phase duration="42" state="rrrrrGGggrrrrGGgg" minDur="5" maxDur="50"/>
        <phase duration="3"  state="rrrrryyyyrrrryyyy"/>
    </tlLogic>
    <tlLogic id="53071906" type="actuated" programID="0" offset="0">
        <phase duration="42" state="GggrrrGGg" minDur="5" maxDur="50"/>
        <phase duration="3"  state="yyyrrryyy"/>
        <phase duration="42" state="rrrGGgGrr" minDur="5" maxDur="50"/>
        <phase duration="3"  state="rrryyyyrr"/>
    </tlLogic>
    <tlLogic id="53071908" type="actuated" programID="0" offset="0">
        <phase duration="42" state="GGgGggrrr" minDur="5" maxDur="50"/>
        <phase duration="3"  state="yyyyyyrrr"/>
        <phase duration="42" state="GrrrrrGGg" minDur="5" maxDur="50"/>
        <phase duration="3"  state="yrrrrryyy"/>
    </tlLogic>
    <tlLogic id="53073244" type="actuated" programID="0" offset="0">
        <phase duration="27" state="rrrGGGGgGrrrrrr" minDur="5" maxDur="50"/>
        <phase duration="3"  state="rrryyyyyyrrrrrr"/>
        <phase duration="27" state="GGGgrrrrGGGgrrr" minDur="5" maxDur="50"/>
        <phase duration="3"  state="yyyyrrrryyyyrrr"/>
        <phase duration="27" state="GrrrrrrrrrrGGGg" minDur="5" maxDur="50"/>
        <phase duration="3"  state="yrrrrrrrrrryyyy"/>
    </tlLogic>
    <tlLogic id="53073245" type="actuated" programID="0" offset="0">
        <phase duration="42" state="rrrGGgGGg" minDur="5" maxDur="50"/>
        <phase duration="3"  state="rrryyyyyy"/>
        <phase duration="42" state="GGgGrrrrr" minDur="5" maxDur="50"/>
        <phase duration="3"  state="yyyyrrrrr"/>
    </tlLogic>
    <tlLogic id="53073246" type="actuated" programID="0" offset="0">
        <phase duration="38" state="GGggrrrrGGggrrrr" minDur="5" maxDur="50"/>
        <phase duration="3"  state="yyggrrrryyggrrrr"/>
        <phase duration="6"  state="rrGGrrrrrrGGrrrr" minDur="5" maxDur="50"/>
        <phase duration="3"  state="rryyrrrrrryyrrrr"/>
        <phase duration="37" state="rrrrGGggrrrrGGgg" minDur="5" maxDur="50"/>
        <phase duration="3"  state="rrrryyyyrrrryyyy"/>
    </tlLogic>
    <tlLogic id="53073247" type="actuated" programID="0" offset="0">
        <phase duration="38" state="rrrrrGGggrrrrrGGGgg" minDur="5" maxDur="50"/>
        <phase duration="3"  state="rrrrryyggrrrrryyygg"/>
        <phase duration="6"  state="rrrrrrrGGrrrrrrrrGG" minDur="5" maxDur="50"/>
        <phase duration="3"  state="rrrrrrryyrrrrrrrryy"/>
        <phase duration="37" state="GGGggrrrrGGGggrrrrr" minDur="5" maxDur="50"/>
        <phase duration="3"  state="yyyyyrrrryyyyyrrrrr"/>
    </tlLogic>
    <tlLogic id="53073248" type="actuated" programID="0" offset="0">
        <phase duration="42" state="rrrGGGgGGgg" minDur="5" maxDur="50"/>
        <phase duration="3"  state="rrryyyyyyyy"/>
        <phase duration="42" state="GGgGrrrrrrr" minDur="5" maxDur="50"/>
        <phase duration="3"  state="yyyyrrrrrrr"/>
    </tlLogic>
    <tlLogic id="53073251" type="actuated" programID="0" offset="0">
        <phase duration="38" state="GGGggrrrrGGGggrrrr" minDur="5" maxDur="50"/>
        <phase duration="3"  state="yyyggrrrryyyggrrrr"/>
        <phase duration="6"  state="rrrGGrrrrrrrGGrrrr" minDur="5" maxDur="50"/>
        <phase duration="3"  state="rrryyrrrrrrryyrrrr"/>
        <phase duration="37" state="rrrrrGGGgrrrrrGGGg" minDur="5" maxDur="50"/>
        <phase duration="3"  state="rrrrryyyyrrrrryyyy"/>
    </tlLogic>
    <tlLogic id="53073253" type="actuated" programID="0" offset="0">
        <phase duration="42" state="rrrrGGGggrrrrGGGgg" minDur="5" maxDur="50"/>
        <phase duration="3"  state="rrrryyyyyrrrryyyyy"/>
        <phase duration="42" state="GGggrrrrrGGggrrrrr" minDur="5" maxDur="50"/>
        <phase duration="3"  state="yyyyrrrrryyyyrrrrr"/>
    </tlLogic>
    <tlLogic id="53073254" type="actuated" programID="0" offset="0">
        <phase duration="38" state="GGGggrrrrGGggrrrr" minDur="5" maxDur="50"/>
        <phase duration="3"  state="yyyggrrrryyggrrrr"/>
        <phase duration="6"  state="rrrGGrrrrrrGGrrrr" minDur="5" maxDur="50"/>
        <phase duration="3"  state="rrryyrrrrrryyrrrr"/>
        <phase duration="37" state="rrrrrGGggrrrrGGgg" minDur="5" maxDur="50"/>
        <phase duration="3"  state="rrrrryyyyrrrryyyy"/>
    </tlLogic>
    <tlLogic id="53073255" type="actuated" programID="0" offset="0">
        <phase duration="38" state="GGGggrrrGGggrrr" minDur="5" maxDur="50"/>
        <phase duration="3"  state="yyyggrrryyggrrr"/>
        <phase duration="6"  state="rrrGGrrrrrGGrrr" minDur="5" maxDur="50"/>
        <phase duration="3"  state="rrryyrrrrryyrrr"/>
        <phase duration="37" state="rrrrrGGgrrrrGGg" minDur="5" maxDur="50"/>
        <phase duration="3"  state="rrrrryyyrrrryyy"/>
    </tlLogic>
    <tlLogic id="53073259" type="actuated" programID="0" offset="0">
        <phase duration="42" state="GgrrrGGg" minDur="5" maxDur="50"/>
        <phase duration="3"  state="yyrrryyy"/>
        <phase duration="42" state="rrGGgGrr" minDur="5" maxDur="50"/>
        <phase duration="3"  state="rryyyyrr"/>
    </tlLogic>
    <tlLogic id="53073260" type="actuated" programID="0" offset="0">
        <phase duration="27" state="rrrGgrrrGGg" minDur="5" maxDur="50"/>
        <phase duration="3"  state="rrryyrrryyy"/>
        <phase duration="27" state="rrrrrGGgGrr" minDur="5" maxDur="50"/>
        <phase duration="3"  state="rrrrryyyyrr"/>
        <phase duration="27" state="GGGrrrrrrrr" minDur="5" maxDur="50"/>
        <phase duration="3"  state="yyyrrrrrrrr"/>
    </tlLogic>
    <tlLogic id="53077594" type="actuated" programID="0" offset="0">
        <phase duration="38" state="rrrrGGggrrrrGGgg" minDur="5" maxDur="50"/>
        <phase duration="3"  state="rrrryyggrrrryygg"/>
        <phase duration="6"  state="rrrrrrGGrrrrrrGG" minDur="5" maxDur="50"/>
        <phase duration="3"  state="rrrrrryyrrrrrryy"/>
        <phase duration="37" state="GGggrrrrGGggrrrr" minDur="5" maxDur="50"/>
        <phase duration="3"  state="yyyyrrrryyyyrrrr"/>
    </tlLogic>
    <tlLogic id="53079313" type="actuated" programID="0" offset="0">
        <phase duration="42" state="GGGgGGggrrr" minDur="5" maxDur="50"/>
        <phase duration="3"  state="yyyyyyyyrrr"/>
        <phase duration="42" state="GrrrrrrrGGg" minDur="5" maxDur="50"/>
        <phase duration="3"  state="yrrrrrrryyy"/>
    </tlLogic>
    <tlLogic id="53089004" type="actuated" programID="0" offset="0">
        <phase duration="42" state="GgGr" minDur="5" maxDur="50"/>
        <phase duration="3"  state="yyyr"/>
        <phase duration="42" state="GrGg" minDur="5" maxDur="50"/>
        <phase duration="3"  state="yryy"/>
    </tlLogic>
    <tlLogic id="53089007" type="actuated" programID="0" offset="0">
        <phase duration="42" state="GGggrrrrGGggrrrr" minDur="5" maxDur="50"/>
        <phase duration="3"  state="yyyyrrrryyyyrrrr"/>
        <phase duration="42" state="rrrrGGggrrrrGGgg" minDur="5" maxDur="50"/>
        <phase duration="3"  state="rrrryyyyrrrryyyy"/>
    </tlLogic>
    <tlLogic id="53089008" type="actuated" programID="0" offset="0">
        <phase duration="38" state="GGGggrrrGGGggrrrr" minDur="5" maxDur="50"/>
        <phase duration="3"  state="yyyyyrrryyyyyrrrr"/>
        <phase duration="37" state="rrrrrGGgrrrrrGGgg" minDur="5" maxDur="50"/>
        <phase duration="3"  state="rrrrryygrrrrryygg"/>
        <phase duration="6"  state="rrrrrrrGrrrrrrrGG" minDur="5" maxDur="50"/>
        <phase duration="3"  state="rrrrrrryrrrrrrryy"/>
    </tlLogic>
    <tlLogic id="53089011" type="actuated" programID="0" offset="0">
        <phase duration="38" state="rrrrrGGGGgrrrGGGgg" minDur="5" maxDur="50"/>
        <phase duration="3"  state="rrrrryyyygrrryyygg"/>
        <phase duration="6"  state="rrrrrrrrrGrrrrrrGG" minDur="5" maxDur="50"/>
        <phase duration="3"  state="rrrrrrrrryrrrrrryy"/>
        <phase duration="37" state="GGGggrrrrrGGgrrrrr" minDur="5" maxDur="50"/>
        <phase duration="3"  state="yyyyyrrrrryyyrrrrr"/>
    </tlLogic>
    <tlLogic id="53089019" type="actuated" programID="0" offset="0">
        <phase duration="42" state="GGggrrrrGGggrrrr" minDur="5" maxDur="50"/>
        <phase duration="3"  state="yyyyrrrryyyyrrrr"/>
        <phase duration="42" state="rrrrGGggrrrrGGgg" minDur="5" maxDur="50"/>
        <phase duration="3"  state="rrrryyyyrrrryyyy"/>
    </tlLogic>
    <tlLogic id="53089023" type="actuated" programID="0" offset="0">
        <phase duration="38" state="rrrrGGGggrrrrGGGgg" minDur="5" maxDur="50"/>
        <phase duration="3"  state="rrrryyyggrrrryyygg"/>
        <phase duration="6"  state="rrrrrrrGGrrrrrrrGG" minDur="5" maxDur="50"/>
        <phase duration="3"  state="rrrrrrryyrrrrrrryy"/>
        <phase duration="37" state="GGggrrrrrGGggrrrrr" minDur="5" maxDur="50"/>
        <phase duration="3"  state="yyyyrrrrryyyyrrrrr"/>
    </tlLogic>
    <tlLogic id="53089030" type="actuated" programID="0" offset="0">
        <phase duration="38" state="GGggrrrrGGggrrrr" minDur="5" maxDur="50"/>
        <phase duration="3"  state="yyggrrrryyggrrrr"/>
        <phase duration="6"  state="rrGGrrrrrrGGrrrr" minDur="5" maxDur="50"/>
        <phase duration="3"  state="rryyrrrrrryyrrrr"/>
        <phase duration="37" state="rrrrGGggrrrrGGgg" minDur="5" maxDur="50"/>
        <phase duration="3"  state="rrrryyyyrrrryyyy"/>
    </tlLogic>
    <tlLogic id="53096945" type="actuated" programID="0" offset="0">
        <phase duration="38" state="GGGggrrrrGGGggrrrr" minDur="5" maxDur="50"/>
        <phase duration="3"  state="yyyggrrrryyyggrrrr"/>
        <phase duration="6"  state="rrrGGrrrrrrrGGrrrr" minDur="5" maxDur="50"/>
        <phase duration="3"  state="rrryyrrrrrrryyrrrr"/>
        <phase duration="37" state="rrrrrGGggrrrrrGGgg" minDur="5" maxDur="50"/>
        <phase duration="3"  state="rrrrryyyyrrrrryyyy"/>
    </tlLogic>
    <tlLogic id="53101739" type="actuated" programID="0" offset="0">
        <phase duration="42" state="GGggrrrrGGggrrrr" minDur="5" maxDur="50"/>
        <phase duration="3"  state="yyyyrrrryyyyrrrr"/>
        <phase duration="42" state="rrrrGGggrrrrGGgg" minDur="5" maxDur="50"/>
        <phase duration="3"  state="rrrryyyyrrrryyyy"/>
    </tlLogic>
    <tlLogic id="53104015" type="actuated" programID="0" offset="0">
        <phase duration="42" state="GggrrrGGg" minDur="5" maxDur="50"/>
        <phase duration="3"  state="yyyrrryyy"/>
        <phase duration="42" state="rrrGGgGrr" minDur="5" maxDur="50"/>
        <phase duration="3"  state="rrryyyyrr"/>
    </tlLogic>
    <tlLogic id="53107175" type="actuated" programID="0" offset="0">
        <phase duration="42" state="GGGgGGggr" minDur="5" maxDur="50"/>
        <phase duration="3"  state="yyyyyyyyr"/>
        <phase duration="42" state="GrrgGGrrG" minDur="5" maxDur="50"/>
        <phase duration="3"  state="yrryyyrry"/>
    </tlLogic>
    <tlLogic id="53107180" type="actuated" programID="0" offset="0">
        <phase duration="42" state="GGggrrrrGGggrrrr" minDur="5" maxDur="50"/>
        <phase duration="3"  state="yyyyrrrryyyyrrrr"/>
        <phase duration="42" state="rrrrGGggrrrrGGgg" minDur="5" maxDur="50"/>
        <phase duration="3"  state="rrrryyyyrrrryyyy"/>
    </tlLogic>
    <tlLogic id="53108484" type="actuated" programID="0" offset="0">
        <phase duration="42" state="GGGgrrrrGGGggrrrr" minDur="5" maxDur="50"/>
        <phase duration="3"  state="yyyyrrrryyyyyrrrr"/>
        <phase duration="42" state="rrrrGGggrrrrrGGgg" minDur="5" maxDur="50"/>
        <phase duration="3"  state="rrrryyyyrrrrryyyy"/>
    </tlLogic>
    <tlLogic id="53114222" type="actuated" programID="0" offset="0">
        <phase duration="42" state="rrrrGGGgrrrrGGGgg" minDur="5" maxDur="50"/>
        <phase duration="3"  state="rrrryyyyrrrryyyyy"/>
        <phase duration="42" state="GGggrrrrGGggrrrrr" minDur="5" maxDur="50"/>
        <phase duration="3"  state="yyyyrrrryyyyrrrrr"/>
    </tlLogic>
    <tlLogic id="53125334" type="actuated" programID="0" offset="0">
        <phase duration="42" state="GGggrrrrGGggrrrr" minDur="5" maxDur="50"/>
        <phase duration="3"  state="yyyyrrrryyyyrrrr"/>
        <phase duration="42" state="rrrrGGggrrrrGGgg" minDur="5" maxDur="50"/>
        <phase duration="3"  state="rrrryyyyrrrryyyy"/>
    </tlLogic>
    <tlLogic id="53128458" type="actuated" programID="0" offset="0">
        <phase duration="42" state="rrrrGGggrrrrGGGgg" minDur="5" maxDur="50"/>
        <phase duration="3"  state="rrrryyyyrrrryyyyy"/>
        <phase duration="42" state="GGggrrrrGGggrrrrr" minDur="5" maxDur="50"/>
        <phase duration="3"  state="yyyyrrrryyyyrrrrr"/>
    </tlLogic>
    <tlLogic id="53129446" type="actuated" programID="0" offset="0">
        <phase duration="38" state="rrrrGGggrrrrGGgg" minDur="5" maxDur="50"/>
        <phase duration="3"  state="rrrryyggrrrryygg"/>
        <phase duration="6"  state="rrrrrrGGrrrrrrGG" minDur="5" maxDur="50"/>
        <phase duration="3"  state="rrrrrryyrrrrrryy"/>
        <phase duration="37" state="GGggrrrrGGggrrrr" minDur="5" maxDur="50"/>
        <phase duration="3"  state="yyyyrrrryyyyrrrr"/>
    </tlLogic>
    <tlLogic id="53129459" type="actuated" programID="0" offset="0">
        <phase duration="42" state="GggrrrGGg" minDur="5" maxDur="50"/>
        <phase duration="3"  state="yyyrrryyy"/>
        <phase duration="42" state="rrrGGgGrr" minDur="5" maxDur="50"/>
        <phase duration="3"  state="rrryyyyrr"/>
    </tlLogic>
    <tlLogic id="53131380" type="actuated" programID="0" offset="0">
        <phase duration="38" state="GGggrrrrGGggrrrr" minDur="5" maxDur="50"/>
        <phase duration="3"  state="yyggrrrryyggrrrr"/>
        <phase duration="6"  state="rrGGrrrrrrGGrrrr" minDur="5" maxDur="50"/>
        <phase duration="3"  state="rryyrrrrrryyrrrr"/>
        <phase duration="37" state="rrrrGGggrrrrGGgg" minDur="5" maxDur="50"/>
        <phase duration="3"  state="rrrryyyyrrrryyyy"/>
    </tlLogic>
    <tlLogic id="53131403" type="actuated" programID="0" offset="0">
        <phase duration="38" state="rrrrGGggrrrrGGGgg" minDur="5" maxDur="50"/>
        <phase duration="3"  state="rrrryyggrrrryyygg"/>
        <phase duration="6"  state="rrrrrrGGrrrrrrrGG" minDur="5" maxDur="50"/>
        <phase duration="3"  state="rrrrrryyrrrrrrryy"/>
        <phase duration="37" state="GGggrrrrGGggrrrrr" minDur="5" maxDur="50"/>
        <phase duration="3"  state="yyyyrrrryyyyrrrrr"/>
    </tlLogic>
    <tlLogic id="53134982" type="actuated" programID="0" offset="0">
        <phase duration="42" state="GGggrrrrGGgrrrr" minDur="5" maxDur="50"/>
        <phase duration="3"  state="yyyyrrrryyyrrrr"/>
        <phase duration="42" state="rrrrGGggrrrGGgg" minDur="5" maxDur="50"/>
        <phase duration="3"  state="rrrryyyyrrryyyy"/>
    </tlLogic>
    <tlLogic id="53145425" type="actuated" programID="0" offset="0">
        <phase duration="27" state="GGGgrrrGGggrrr" minDur="5" maxDur="50"/>
        <phase duration="3"  state="yyyyrrryyyyrrr"/>
        <phase duration="27" state="GrrrGGGrrrrrrr" minDur="5" maxDur="50"/>
        <phase duration="3"  state="yrrryyyrrrrrrr"/>
        <phase duration="27" state="GrrrrrrrrrrGGg" minDur="5" maxDur="50"/>
        <phase duration="3"  state="yrrrrrrrrrryyy"/>
    </tlLogic>
    <tlLogic id="53149387" type="actuated" programID="0" offset="0">
        <phase duration="24" state="GggrrrGGgrrr" minDur="5" maxDur="50"/>
        <phase duration="3"  state="yggrrryyyrrr"/>
        <phase duration="6"  state="GGGrrrrrrrrr" minDur="5" maxDur="50"/>
        <phase duration="3"  state="yyyrrrrrrrrr"/>
        <phase duration="24" state="rrrrrrrrrGGG" minDur="5" maxDur="50"/>
        <phase duration="3"  state="rrrrrrrrryyy"/>
        <phase duration="24" state="rrrGGgGrrrrr" minDur="5" maxDur="50"/>
        <phase duration="3"  state="rrryyyyrrrrr"/>
    </tlLogic>
    <tlLogic id="53149401" type="actuated" programID="0" offset="0">
        <phase duration="42" state="rrrrGGggrrrrGGgg" minDur="5" maxDur="50"/>
        <phase duration="3"  state="rrrryyyyrrrryyyy"/>
        <phase duration="42" state="GGggrrrrGGggrrrr" minDur="5" maxDur="50"/>
        <phase duration="3"  state="yyyyrrrryyyyrrrr"/>
    </tlLogic>
    <tlLogic id="53154566" type="actuated" programID="0" offset="0">
        <phase duration="27" state="GGgrrrGggrrr" minDur="5" maxDur="50"/>
        <phase duration="3"  state="yyyrrryyyrrr"/>
        <phase duration="27" state="rrrGGGrrrrrr" minDur="5" maxDur="50"/>
        <phase duration="3"  state="rrryyyrrrrrr"/>
        <phase duration="27" state="GrrrrrrrrGGg" minDur="5" maxDur="50"/>
        <phase duration="3"  state="yrrrrrrrryyy"/>
    </tlLogic>
    <tlLogic id="53163482" type="actuated" programID="0" offset="0">
        <phase duration="42" state="GGggrrrrGGggrrrr" minDur="5" maxDur="50"/>
        <phase duration="3"  state="yyyyrrrryyyyrrrr"/>
        <phase duration="42" state="rrrrGGggrrrrGGgg" minDur="5" maxDur="50"/>
        <phase duration="3"  state="rrrryyyyrrrryyyy"/>
    </tlLogic>
    <tlLogic id="53165711" type="actuated" programID="0" offset="0">
        <phase duration="42" state="rrrGGGggrrrrGGGgg" minDur="5" maxDur="50"/>
        <phase duration="3"  state="rrryyyyyrrrryyyyy"/>
        <phase duration="42" state="GGgrrrrrGGggrrrrr" minDur="5" maxDur="50"/>
        <phase duration="3"  state="yyyrrrrryyyyrrrrr"/>
    </tlLogic>
    <tlLogic id="53165712" type="actuated" programID="0" offset="0">
        <phase duration="38" state="GGGggrrrrGGGggrrrr" minDur="5" maxDur="50"/>
        <phase duration="3"  state="yyyggrrrryyyggrrrr"/>
        <phase duration="6"  state="rrrGGrrrrrrrGGrrrr" minDur="5" maxDur="50"/>
        <phase duration="3"  state="rrryyrrrrrrryyrrrr"/>
        <phase duration="37" state="rrrrrGGGgrrrrrGGGg" minDur="5" maxDur="50"/>
        <phase duration="3"  state="rrrrryyyyrrrrryyyy"/>
    </tlLogic>
    <tlLogic id="53165716" type="actuated" programID="0" offset="0">
        <phase duration="38" state="GGGggrrrrGGgrrrr" minDur="5" maxDur="50"/>
        <phase duration="3"  state="yyyggrrrryyyrrrr"/>
        <phase duration="6"  state="GGGGGrrrrrrrrrrr" minDur="5" maxDur="50"/>
        <phase duration="3"  state="yyyyyrrrrrrrrrrr"/>
        <phase duration="37" state="rrrrrGGggrrrGGgg" minDur="5" maxDur="50"/>
        <phase duration="3"  state="rrrrryyyyrrryyyy"/>
    </tlLogic>
    <tlLogic id="53165720" type="actuated" programID="0" offset="0">
        <phase duration="38" state="rrrrGGggrrrrGGgg" minDur="5" maxDur="50"/>
        <phase duration="3"  state="rrrryyggrrrryygg"/>
        <phase duration="6"  state="rrrrrrGGrrrrrrGG" minDur="5" maxDur="50"/>
        <phase duration="3"  state="rrrrrryyrrrrrryy"/>
        <phase duration="37" state="GGggrrrrGGggrrrr" minDur="5" maxDur="50"/>
        <phase duration="3"  state="yyyyrrrryyyyrrrr"/>
    </tlLogic>
    <tlLogic id="53166776" type="actuated" programID="0" offset="0">
        <phase duration="38" state="rrrrGGggrrrrGGgg" minDur="5" maxDur="50"/>
        <phase duration="3"  state="rrrryyggrrrryygg"/>
        <phase duration="6"  state="rrrrrrGGrrrrrrGG" minDur="5" maxDur="50"/>
        <phase duration="3"  state="rrrrrryyrrrrrryy"/>
        <phase duration="37" state="GGggrrrrGGggrrrr" minDur="5" maxDur="50"/>
        <phase duration="3"  state="yyyyrrrryyyyrrrr"/>
    </tlLogic>
    <tlLogic id="53166785" type="actuated" programID="0" offset="0">
        <phase duration="42" state="GGggrrrrGGggrrrr" minDur="5" maxDur="50"/>
        <phase duration="3"  state="yyyyrrrryyyyrrrr"/>
        <phase duration="42" state="rrrrGGggrrrrGGgg" minDur="5" maxDur="50"/>
        <phase duration="3"  state="rrrryyyyrrrryyyy"/>
    </tlLogic>
    <tlLogic id="53166796" type="actuated" programID="0" offset="0">
        <phase duration="42" state="GGGgGGggrrr" minDur="5" maxDur="50"/>
        <phase duration="3"  state="yyyyyyyyrrr"/>
        <phase duration="42" state="GrrrrrrrGGg" minDur="5" maxDur="50"/>
        <phase duration="3"  state="yrrrrrrryyy"/>
    </tlLogic>
    <tlLogic id="53168894" type="actuated" programID="0" offset="0">
        <phase duration="42" state="GGGggrrrrGGGggrrrr" minDur="5" maxDur="50"/>
        <phase duration="3"  state="yyyyyrrrryyyyyrrrr"/>
        <phase duration="42" state="rrrrrGGggrrrrrGGgg" minDur="5" maxDur="50"/>
        <phase duration="3"  state="rrrrryyyyrrrrryyyy"/>
    </tlLogic>
    <tlLogic id="53168922" type="actuated" programID="0" offset="0">
        <phase duration="42" state="GggrrrGGg" minDur="5" maxDur="50"/>
        <phase duration="3"  state="yyyrrryyy"/>
        <phase duration="42" state="rrrGGgGrr" minDur="5" maxDur="50"/>
        <phase duration="3"  state="rrryyyyrr"/>
    </tlLogic>
    <tlLogic id="53168924" type="actuated" programID="0" offset="0">
        <phase duration="42" state="rrrrGGggrrrrGGgg" minDur="5" maxDur="50"/>
        <phase duration="3"  state="rrrryyyyrrrryyyy"/>
        <phase duration="42" state="GGggrrrrGGggrrrr" minDur="5" maxDur="50"/>
        <phase duration="3"  state="yyyyrrrryyyyrrrr"/>
    </tlLogic>
    <tlLogic id="53168932" type="actuated" programID="0" offset="0">
        <phase duration="42" state="GGggrrrrGGggrrrr" minDur="5" maxDur="50"/>
        <phase duration="3"  state="yyyyrrrryyyyrrrr"/>
        <phase duration="42" state="rrrrGGggrrrrGGgg" minDur="5" maxDur="50"/>
        <phase duration="3"  state="rrrryyyyrrrryyyy"/>
    </tlLogic>
    <tlLogic id="53184115" type="actuated" programID="0" offset="0">
        <phase duration="27" state="GGGgrrrGGggrrr" minDur="5" maxDur="50"/>
        <phase duration="3"  state="yyyyrrryyyyrrr"/>
        <phase duration="27" state="rrrrGGGrrrrrrr" minDur="5" maxDur="50"/>
        <phase duration="3"  state="rrrryyyrrrrrrr"/>
        <phase duration="27" state="GrrrrrrrrrrGGg" minDur="5" maxDur="50"/>
        <phase duration="3"  state="yrrrrrrrrrryyy"/>
    </tlLogic>
    <tlLogic id="53184116" type="actuated" programID="0" offset="0">
        <phase duration="38" state="GGGggrrrrGGGggrrrr" minDur="5" maxDur="50"/>
        <phase duration="3"  state="yyyggrrrryyyggrrrr"/>
        <phase duration="6"  state="rrrGGrrrrrrrGGrrrr" minDur="5" maxDur="50"/>
        <phase duration="3"  state="rrryyrrrrrrryyrrrr"/>
        <phase duration="37" state="rrrrrGGggrrrrrGGgg" minDur="5" maxDur="50"/>
        <phase duration="3"  state="rrrrryyyyrrrrryyyy"/>
    </tlLogic>
    <tlLogic id="53184117" type="actuated" programID="0" offset="0">
        <phase duration="38" state="GGGggrrrrGGGggrrrr" minDur="5" maxDur="50"/>
        <phase duration="3"  state="yyyggrrrryyyggrrrr"/>
        <phase duration="6"  state="rrrGGrrrrrrrGGrrrr" minDur="5" maxDur="50"/>
        <phase duration="3"  state="rrryyrrrrrrryyrrrr"/>
        <phase duration="37" state="rrrrrGGggrrrrrGGgg" minDur="5" maxDur="50"/>