<?xml version="1.0" encoding="UTF-8"?>

<!-- generated on Sun Jan  2 17:37:09 2022 by Eclipse SUMO netconvert Version 1.8.0
<configuration xmlns:xsi="http://www.w3.org/2001/XMLSchema-instance" xsi:noNamespaceSchemaLocation="http://sumo.dlr.de/xsd/netconvertConfiguration.xsd">

    <input>
        <sumo-net-file value="kanpur.net.xml"/>
    </input>

    <output>
        <plain-output-prefix value="temp"/>
    </output>

    <processing>
        <geometry.min-radius.fix.railways value="false"/>
        <geometry.max-grade.fix value="false"/>
        <offset.disable-normalization value="true"/>
        <lefthand value="false"/>
    </processing>

    <junctions>
        <no-turnarounds value="true"/>
        <junctions.corner-detail value="5"/>
        <junctions.limit-turn-speed value="5.5"/>
        <rectangular-lane-cut value="false"/>
    </junctions>

    <pedestrian>
        <walkingareas value="false"/>
    </pedestrian>

    <report>
        <aggregate-warnings value="5"/>
    </report>

</configuration>
-->

<nodes version="1.6" xmlns:xsi="http://www.w3.org/2001/XMLSchema-instance" xsi:noNamespaceSchemaLocation="http://sumo.dlr.de/xsd/nodes_file.xsd">
    <location netOffset="-427019.76,-2916464.72" convBoundary="1116.23,2587.69,6337.13,6133.06" origBoundary="80.268024,26.188209,80.519281,26.488781" projParameter="+proj=utm +zone=44 +ellps=WGS84 +datum=WGS84 +units=m +no_defs"/>

    <node id="-313316091#0.27" x="5061.22" y="5519.63" type="priority"/>
    <node id="-313316091#0.72" x="5021.48" y="5542.32" type="priority"/>
    <node id="-313316091#0.80" x="5014.68" y="5545.42" type="priority"/>
    <node id="-313316091#1.32" x="5154.28" y="5464.87" type="priority"/>
    <node id="-313316091#10.31" x="5565.10" y="5223.64" type="priority"/>
    <node id="-313316091#14.20" x="5656.70" y="5170.75" type="priority"/>
    <node id="-313316091#18.26" x="5739.51" y="5122.43" type="priority"/>
    <node id="-313316091#2.44" x="5250.56" y="5409.01" type="priority"/>
    <node id="-313316091#4.67" x="5327.22" y="5363.52" type="priority"/>
    <node id="-313316091#5.44" x="5404.15" y="5318.81" type="priority"/>
    <node id="-313316091#8.29" x="5491.49" y="5266.21" type="priority"/>
    <node id="-313316100#4.31" x="4483.15" y="6044.82" type="priority"/>
    <node id="-313316100#4.4" x="4485.82" y="6017.81" type="priority"/>
    <node id="-313316100#8.102" x="4499.00" y="5805.57" type="priority"/>
    <node id="-313316104#2.13" x="4581.17" y="4609.44" type="priority"/>
    <node id="-313316104#2.35" x="4559.92" y="4615.01" type="priority"/>
    <node id="-313316104#2.44" x="4550.83" y="4616.12" type="priority"/>
    <node id="-313316104#4.18" x="4683.98" y="4576.70" type="priority"/>
    <node id="-313316104#4.31" x="4673.86" y="4583.81" type="priority"/>
    <node id="-313316104#4.4" x="4694.36" y="4566.40" type="priority"/>
    <node id="-313316104#4.41" x="4664.66" y="4588.51" type="priority"/>
    <node id="-313316104#4.56" x="4649.96" y="4592.44" type="priority"/>
    <node id="-313316104#5.12" x="4735.58" y="4518.82" type="priority"/>
    <node id="-313316104#5.27" x="4725.60" y="4528.98" type="priority"/>
    <node id="-313316104#5.46" x="4712.30" y="4543.55" type="priority"/>
    <node id="-44739144#19.14" x="4270.99" y="5837.25" type="priority"/>
    <node id="-44739157#2.54" x="6254.49" y="6132.61" type="dead_end"/>
    <node id="-44739167#15.17" x="5487.32" y="5288.98" type="priority"/>
    <node id="-44740885#1.72" x="6280.06" y="4979.79" type="priority"/>
    <node id="-44740885#11.4" x="5777.22" y="4539.74" type="priority"/>
    <node id="-44740885#11.8" x="5780.25" y="4542.51" type="priority"/>
    <node id="-44740885#12.2" x="5760.24" y="4499.93" type="priority"/>
    <node id="-44740885#12.5" x="5761.22" y="4502.70" type="priority"/>
    <node id="-44740885#13.21" x="5795.18" y="4476.21" type="priority"/>
    <node id="-44740885#13.24" x="5794.23" y="4479.31" type="priority"/>
    <node id="-44740885#13.27" x="5792.41" y="4481.84" type="priority"/>
    <node id="-44740885#13.31" x="5790.05" y="4483.94" type="priority"/>
    <node id="-44740885#13.35" x="5786.40" y="4485.88" type="priority"/>
    <node id="-44740885#13.4" x="5795.09" y="4459.52" type="priority"/>
    <node id="-44740885#13.56" x="5766.54" y="4492.62" type="priority"/>
    <node id="-44740885#13.59" x="5763.22" y="4493.71" type="priority"/>
    <node id="-44740885#13.62" x="5761.40" y="4495.42" type="priority"/>
    <node id="-44740885#14.36" x="5786.86" y="4448.44" type="priority"/>
    <node id="-44740885#14.40" x="5790.10" y="4451.41" type="priority"/>
    <node id="-44740885#15.10" x="5730.96" y="4410.60" type="priority"/>
    <node id="-44740885#5.33" x="6106.32" y="4851.12" type="priority"/>
    <node id="-44740885#9.34" x="5881.42" y="4641.99" type="priority"/>
    <node id="-44740895#2.69" x="6263.39" y="5249.78" type="priority"/>
    <node id="-44740910#5.72" x="4723.31" y="5935.40" type="priority"/>
    <node id="-44740916#1.17" x="4940.97" y="6098.13" type="priority"/>
    <node id="-44740916#1.26" x="4944.22" y="6106.49" type="priority"/>
    <node id="-44740916#2.25" x="4926.00" y="6049.79" type="priority"/>
    <node id="-44740916#2.50" x="4932.94" y="6072.90" type="priority"/>
    <node id="-44740916#4.29" x="4900.90" y="5958.01" type="priority"/>
    <node id="-44740916#9.28" x="4829.35" y="5704.44" type="priority"/>
    <node id="-44740921#0.58" x="5113.81" y="6081.38" type="priority"/>
    <node id="-44740922#2.83" x="5774.03" y="5253.82" type="priority"/>
    <node id="-44740922#5.62" x="5896.39" y="5452.45" type="priority"/>
    <node id="-44740927#0.50" x="5058.39" y="5769.07" type="priority"/>
    <node id="-44740927#0.65" x="5044.91" y="5774.60" type="priority"/>
    <node id="-44740928#0.75" x="5684.35" y="5696.12" type="priority"/>
    <node id="-44740929#9.28" x="6272.80" y="5438.28" type="priority"/>
    <node id="-44740930#0.64" x="5086.78" y="6004.10" type="priority"/>
    <node id="-44740931#2.59" x="5150.22" y="5393.64" type="priority"/>
    <node id="-44740933#3.117" x="4633.84" y="6011.17" type="priority"/>
    <node id="-44740933#3.32" x="4607.19" y="5930.84" type="priority"/>
    <node id="-44740934#1.2" x="4937.82" y="5655.57" type="priority"/>
    <node id="-44740934#3.33" x="4945.82" y="5701.30" type="priority"/>
    <node id="-44740937#1.6" x="5091.80" y="5694.42" type="priority"/>
    <node id="-44740937#2.10" x="5089.75" y="5674.10" type="priority"/>
    <node id="-44740937#2.14" x="5089.12" y="5677.49" type="priority"/>
    <node id="-44740937#2.17" x="5088.97" y="5681.05" type="priority"/>
    <node id="-44740937#2.6" x="5091.34" y="5670.22" type="priority"/>
    <node id="-44740937#3.15" x="5106.87" y="5645.61" type="priority"/>
    <node id="-44740937#3.21" x="5108.68" y="5650.84" type="priority"/>
    <node id="-44740937#3.24" x="5108.95" y="5653.83" type="priority"/>
    <node id="-44740937#3.26" x="5108.63" y="5655.92" type="priority"/>
    <node id="-44740937#3.28" x="5107.50" y="5657.71" type="priority"/>
    <node id="-44740942#2.11" x="5835.76" y="5075.56" type="priority"/>
    <node id="-45342799#25.24" x="6149.72" y="4170.14" type="priority"/>
    <node id="-45342799#25.9" x="6140.29" y="4158.22" type="priority"/>
    <node id="-45342799#27.16" x="6097.02" y="4146.72" type="priority"/>
    <node id="-45342799#27.21" x="6101.85" y="4148.04" type="priority"/>
    <node id="-45342799#27.26" x="6106.12" y="4145.61" type="priority"/>
    <node id="-45342799#27.5" x="6089.09" y="4138.39" type="priority"/>
    <node id="-45342801#5.4" x="6240.11" y="4159.06" type="priority"/>
    <node id="-45342801#6.28" x="6250.64" y="4156.97" type="priority"/>
    <node id="-45342805#0.29" x="5630.53" y="4925.73" type="priority"/>
    <node id="-45342805#1.66" x="5640.55" y="4888.60" type="priority"/>
    <node id="-45342808#0.42" x="5813.04" y="5060.32" type="priority"/>
    <node id="-45342808#1.101" x="5747.71" y="5015.82" type="priority"/>
    <node id="-45342808#11.41" x="5030.70" y="4605.99" type="priority"/>
    <node id="-45342808#15.49" x="4904.05" y="4533.35" type="priority"/>
    <node id="-45342808#16.24" x="4819.26" y="4459.57" type="priority"/>
    <node id="-45342808#16.50" x="4829.68" y="4482.67" type="priority"/>
    <node id="-45342808#16.60" x="4835.21" y="4490.89" type="priority"/>
    <node id="-45342808#16.84" x="4854.68" y="4505.15" type="priority"/>
    <node id="-45342808#4.116" x="5545.10" y="4896.60" type="priority"/>
    <node id="-45342808#4.46" x="5484.01" y="4862.15" type="priority"/>
    <node id="-45342808#5.19" x="5418.95" y="4828.83" type="priority"/>
    <node id="-45342808#5.30" x="5428.78" y="4833.35" type="priority"/>
    <node id="-45342808#6.112" x="5340.11" y="4785.49" type="priority"/>
    <node id="-45342808#6.150" x="5372.66" y="4803.79" type="priority"/>
    <node id="-45342808#6.28" x="5269.50" y="4740.56" type="priority"/>
    <node id="-45342808#7.16" x="5201.08" y="4702.87" type="priority"/>
    <node id="-45342809#10.53" x="5772.23" y="4673.51" type="priority"/>
    <node id="-45342810#10.21" x="5738.65" y="4501.86" type="priority"/>
    <node id="-45342810#4.98" x="5839.94" y="4337.09" type="priority"/>
    <node id="-45342810#6.65" x="5720.56" y="4311.77" type="priority"/>
    <node id="-45342810#7.44" x="5650.73" y="4431.58" type="priority"/>
    <node id="-45342810#8.5" x="5712.71" y="4487.80" type="priority"/>
    <node id="-45342811#2.60" x="5838.01" y="4196.19" type="priority"/>
    <node id="-45342821#1.44" x="5842.56" y="4680.94" type="priority"/>
    <node id="-45342823#4.24" x="5565.75" y="4490.53" type="priority"/>
    <node id="-45342823#4.49" x="5580.07" y="4511.41" type="priority"/>
    <node id="-45342823#6.37" x="5462.57" y="4350.17" type="priority"/>
    <node id="-45342825#3.46" x="5607.79" y="4475.15" type="priority"/>
    <node id="-45342825#3.52" x="5612.50" y="4479.97" type="priority"/>
    <node id="-45342825#3.61" x="5617.56" y="4487.02" type="priority"/>
    <node id="-45342825#3.69" x="5619.34" y="4494.43" type="priority"/>
    <node id="-45342825#3.78" x="5621.82" y="4503.73" type="priority"/>
    <node id="-45342827#0.103" x="5653.73" y="4483.63" type="priority"/>
    <node id="-45342827#0.112" x="5647.11" y="4477.63" type="priority"/>
    <node id="-45342827#0.88" x="5663.34" y="4495.57" type="priority"/>
    <node id="-45342827#0.97" x="5657.83" y="4488.01" type="priority"/>
    <node id="-45342828#1.57" x="5512.44" y="4611.99" type="priority"/>
    <node id="-45342838#4.21" x="5860.12" y="4557.84" type="priority"/>
    <node id="-45342838#4.30" x="5866.81" y="4552.09" type="priority"/>
    <node id="-45342840#1.23" x="5826.19" y="4451.04" type="priority"/>
    <node id="-45342840#1.27" x="5824.54" y="4447.01" type="priority"/>
    <node id="-45342840#1.31" x="5824.36" y="4443.46" type="priority"/>
    <node id="-45342840#1.34" x="5824.82" y="4440.07" type="priority"/>
    <node id="-45342840#1.38" x="5826.43" y="4436.18" type="priority"/>
    <node id="-45342862#3.3" x="6335.19" y="3065.30" type="priority"/>
    <node id="-45343180#1.29" x="4923.91" y="2781.99" type="priority"/>
    <node id="-45343180#1.6" x="4946.39" y="2777.04" type="priority"/>
    <node id="-45343180#1.60" x="4894.77" y="2791.84" type="priority"/>
    <node id="-45343180#2.23" x="4964.52" y="2791.58" type="priority"/>
    <node id="-45343180#2.34" x="4960.59" y="2781.89" type="priority"/>
    <node id="-45343180#2.39" x="4957.10" y="2778.71" type="priority"/>
    <node id="-45343180#3.14" x="4973.96" y="2828.15" type="priority"/>
    <node id="-45343180#4.39" x="4993.40" y="2879.91" type="priority"/>
    <node id="-45343180#5.49" x="5015.27" y="2935.35" type="priority"/>
    <node id="-45343180#7.23" x="5051.21" y="3028.64" type="priority"/>
    <node id="-45343180#8.53" x="5079.33" y="3101.39" type="priority"/>
    <node id="-45344271#1.27" x="5623.13" y="2925.74" type="priority"/>
    <node id="-45344271#13.24" x="5925.73" y="3427.37" type="priority"/>
    <node id="-45344271#19.30" x="6009.05" y="3599.83" type="priority"/>
    <node id="-45344271#2.25" x="5649.06" y="2972.81" type="priority"/>
    <node id="-45344271#22.29" x="6049.41" y="3672.65" type="priority"/>
    <node id="-45344271#26.16" x="6098.82" y="3770.23" type="priority"/>
    <node id="-45344271#28.43" x="6123.13" y="3863.37" type="priority"/>
    <node id="-45344271#29.114" x="6151.95" y="3905.24" type="priority"/>
    <node id="-45344271#29.30" x="6217.73" y="3949.87" type="priority"/>
    <node id="-45344271#29.86" x="6180.06" y="3908.68" type="priority"/>
    <node id="-45344271#29.92" x="6174.16" y="3905.92" type="priority"/>
    <node id="-45344271#3.75" x="5693.35" y="3030.58" type="priority"/>
    <node id="-45344271#6.46" x="5795.44" y="3164.91" type="priority"/>
    <node id="-45344271#7.23" x="5836.99" y="3233.54" type="priority"/>
    <node id="-45344271#9.55" x="5867.60" y="3297.37" type="priority"/>
    <node id="-45344272#10.10" x="4909.58" y="3910.29" type="priority"/>
    <node id="-45344272#11.24" x="4869.44" y="3932.72" type="priority"/>
    <node id="-45344272#13.102" x="4759.82" y="3995.30" type="priority"/>
    <node id="-45344272#13.72" x="4732.60" y="4009.68" type="priority"/>
    <node id="-45344272#2.68" x="5492.39" y="3546.98" type="priority"/>
    <node id="-45344272#3.16" x="5273.58" y="3645.12" type="priority"/>
    <node id="-45344272#3.30" x="5286.17" y="3638.43" type="priority"/>
    <node id="-45344272#3.79" x="5331.47" y="3619.11" type="priority"/>
    <node id="-45344272#7.23" x="5086.94" y="3807.31" type="priority"/>
    <node id="-45344272#7.44" x="5103.30" y="3794.77" type="priority"/>
    <node id="-45344272#8.25" x="5037.46" y="3834.71" type="priority"/>
    <node id="-45344272#9.56" x="4991.32" y="3861.70" type="priority"/>
    <node id="-45344273#1.7" x="5249.19" y="4718.99" type="priority"/>
    <node id="-45344273#10.42" x="5520.24" y="4502.70" type="priority"/>
    <node id="-45344273#14.32" x="5619.17" y="4363.82" type="priority"/>
    <node id="-45344273#16.30" x="5652.26" y="4323.07" type="priority"/>
    <node id="-45344273#16.5" x="5661.90" y="4299.47" type="priority"/>
    <node id="-45344273#17.20" x="5680.07" y="4269.70" type="priority"/>
    <node id="-45344273#17.31" x="5673.17" y="4278.92" type="priority"/>
    <node id="-45344273#18.17" x="5705.08" y="4244.03" type="priority"/>
    <node id="-45344273#2.24" x="5262.77" y="4706.54" type="priority"/>
    <node id="-45344273#2.6" x="5276.36" y="4696.09" type="priority"/>
    <node id="-45344273#21.28" x="5752.13" y="4211.06" type="priority"/>
    <node id="-45344273#22.18" x="5792.57" y="4167.21" type="priority"/>
    <node id="-45344273#22.35" x="5784.08" y="4182.69" type="priority"/>
    <node id="-45344273#22.6" x="5797.46" y="4156.54" type="priority"/>
    <node id="-45344273#23.15" x="5801.64" y="4138.70" type="priority"/>
    <node id="-45344273#25.16" x="5815.34" y="4048.15" type="priority"/>
    <node id="-45344273#27.12" x="5819.67" y="4005.96" type="priority"/>
    <node id="-45344273#29.25" x="5832.51" y="3915.94" type="priority"/>
    <node id="-45344273#29.47" x="5829.75" y="3937.25" type="priority"/>
    <node id="-45344273#3.14" x="5327.06" y="4672.41" type="priority"/>
    <node id="-45344273#3.31" x="5310.37" y="4677.95" type="priority"/>
    <node id="-45344273#3.48" x="5294.75" y="4685.09" type="priority"/>
    <node id="-45344273#3.6" x="5334.27" y="4670.50" type="priority"/>
    <node id="-45344273#30.24" x="5847.24" y="3853.08" type="priority"/>
    <node id="-45344273#30.38" x="5841.95" y="3865.74" type="priority"/>
    <node id="-45344273#30.56" x="5836.82" y="3882.53" type="priority"/>
    <node id="-45344273#31.25" x="5851.71" y="3813.94" type="priority"/>
    <node id="-45344273#31.36" x="5854.84" y="3824.03" type="priority"/>
    <node id="-45344273#32.29" x="5827.68" y="3772.02" type="priority"/>
    <node id="-45344273#32.7" x="5814.22" y="3754.66" type="priority"/>
    <node id="-45344273#34.20" x="5783.85" y="3703.60" type="priority"/>
    <node id="-45344273#35.27" x="5759.15" y="3664.65" type="priority"/>
    <node id="-45344273#36.15" x="5733.47" y="3627.01" type="priority"/>
    <node id="-45344273#38.31" x="5678.70" y="3547.15" type="priority"/>
    <node id="-45344273#38.43" x="5684.50" y="3557.23" type="priority"/>
    <node id="-45344273#38.54" x="5691.10" y="3566.65" type="priority"/>
    <node id="-45344273#4.37" x="5348.61" y="4675.09" type="priority"/>
    <node id="-45344273#4.8" x="5373.03" y="4690.66" type="priority"/>
    <node id="-45344273#5.15" x="5398.47" y="4694.26" type="priority"/>
    <node id="-45344273#5.6" x="5406.48" y="4691.54" type="priority"/>
    <node id="-45344273#6.40" x="5434.97" y="4666.12" type="priority"/>
    <node id="-45344273#6.59" x="5422.07" y="4680.42" type="priority"/>
    <node id="-45344273#7.22" x="5470.50" y="4606.47" type="priority"/>
    <node id="-45344273#8.10" x="5491.24" y="4558.60" type="priority"/>
    <node id="-45344278#0.14" x="5823.28" y="3644.53" type="priority"/>
    <node id="-45344278#0.18" x="5823.30" y="3647.96" type="priority"/>
    <node id="-45344278#0.21" x="5821.39" y="3650.76" type="priority"/>
    <node id="-45344278#2.20" x="5828.34" y="3590.01" type="priority"/>
    <node id="-45344280#0.24" x="5134.16" y="3223.05" type="priority"/>
    <node id="-45344280#0.53" x="5122.77" y="3196.03" type="priority"/>
    <node id="-45344280#11.20" x="5294.56" y="3426.56" type="priority"/>
    <node id="-45344280#11.8" x="5300.95" y="3436.04" type="priority"/>
    <node id="-45344280#14.4" x="5336.55" y="3502.04" type="priority"/>
    <node id="-45344280#2.7" x="5163.74" y="3277.51" type="priority"/>
    <node id="-45344280#6.17" x="5225.97" y="3347.50" type="priority"/>
    <node id="-45344280#8.26" x="5257.47" y="3384.18" type="priority"/>
    <node id="-45344280#9.5" x="5280.61" y="3408.68" type="priority"/>
    <node id="-45344282#2.18" x="5552.70" y="3372.58" type="priority"/>
    <node id="-45344282#2.53" x="5569.72" y="3403.23" type="priority"/>
    <node id="-45344282#5.52" x="5460.93" y="3243.74" type="priority"/>
    <node id="-45344282#5.87" x="5483.54" y="3269.70" type="priority"/>
    <node id="-45344282#6.21" x="5353.06" y="3130.55" type="priority"/>
    <node id="-45344282#6.99" x="5407.00" y="3187.21" type="priority"/>
    <node id="-45344283#1.3" x="5525.61" y="3510.30" type="priority"/>
    <node id="-45344283#10.13" x="4703.56" y="4006.51" type="priority"/>
    <node id="-45344283#10.150" x="4822.51" y="3938.96" type="priority"/>
    <node id="-45344283#10.267" x="4923.73" y="3879.62" type="priority"/>
    <node id="-45344283#10.331" x="4979.08" y="3847.93" type="priority"/>
    <node id="-45344283#10.378" x="5019.89" y="3825.36" type="priority"/>
    <node id="-45344283#10.440" x="5074.58" y="3796.73" type="priority"/>
    <node id="-45344283#10.458" x="5090.72" y="3787.60" type="priority"/>
    <node id="-45344283#10.481" x="5109.24" y="3773.53" type="priority"/>
    <node id="-45344283#10.513" x="5131.19" y="3751.20" type="priority"/>
    <node id="-45344283#10.60" x="4743.56" y="3982.89" type="priority"/>
    <node id="-45344283#6.52" x="5257.91" y="3633.32" type="priority"/>
    <node id="-45344283#6.69" x="5272.58" y="3624.72" type="priority"/>
    <node id="-45344283#6.9" x="5226.36" y="3661.96" type="priority"/>
    <node id="-45344283#7.3" x="5191.74" y="3692.47" type="priority"/>
    <node id="-45344284#12.13" x="5934.54" y="3024.30" type="priority"/>
    <node id="-45344284#7.129" x="5553.39" y="3289.99" type="priority"/>
    <node id="-45344284#7.68" x="5603.43" y="3254.78" type="priority"/>
    <node id="-45344285#10.18" x="6029.99" y="2975.25" type="priority"/>
    <node id="-45344285#10.22" x="6032.17" y="2979.21" type="priority"/>
    <node id="-45344285#10.28" x="6032.81" y="2985.17" type="priority"/>
    <node id="-45344285#10.33" x="6030.52" y="2989.31" type="priority"/>
    <node id="-45344285#10.39" x="6025.62" y="2992.85" type="priority"/>
    <node id="-45344285#7.20" x="6060.54" y="3072.83" type="priority"/>
    <node id="-45344285#7.25" x="6062.16" y="3077.34" type="priority"/>
    <node id="-45344285#7.28" x="6062.32" y="3080.93" type="priority"/>
    <node id="-45344285#7.33" x="6059.55" y="3084.06" type="priority"/>
    <node id="-45344285#9.4" x="6025.11" y="3000.42" type="priority"/>
    <node id="-45344286#1.19" x="4822.03" y="4426.36" type="priority"/>
    <node id="-45344286#2.12" x="4865.74" y="4371.12" type="priority"/>
    <node id="-45344286#2.42" x="4849.09" y="4396.42" type="priority"/>
    <node id="-45344286#3.30" x="4892.74" y="4341.30" type="priority"/>
    <node id="-45344286#3.45" x="4882.37" y="4352.53" type="priority"/>
    <node id="-45344286#3.9" x="4903.34" y="4323.16" type="priority"/>
    <node id="-45344286#4.11" x="4914.17" y="4296.36" type="priority"/>
    <node id="-45344286#6.52" x="4921.18" y="4258.01" type="priority"/>
    <node id="-45344286#9.15" x="4996.15" y="4118.04" type="priority"/>
    <node id="-45344286#9.41" x="4976.04" y="4133.46" type="priority"/>
    <node id="-45344286#9.67" x="4954.18" y="4147.94" type="priority"/>
    <node id="-45344287#0.14" x="4953.97" y="4184.39" type="priority"/>
    <node id="-45344287#0.5" x="4961.74" y="4187.42" type="priority"/>
    <node id="-45344287#2.126" x="4997.33" y="4213.97" type="priority"/>
    <node id="-45344287#2.137" x="4989.80" y="4206.15" type="priority"/>
    <node id="-45344287#2.144" x="4984.83" y="4201.39" type="priority"/>
    <node id="-45344287#2.22" x="5047.17" y="4304.83" type="priority"/>
    <node id="-45344287#2.46" x="5039.83" y="4282.39" type="priority"/>
    <node id="-45344287#2.75" x="5025.25" y="4257.32" type="priority"/>
    <node id="-45344287#3.35" x="5073.72" y="4373.21" type="priority"/>
    <node id="-45344287#3.82" x="5054.80" y="4330.20" type="priority"/>
    <node id="-45344288#0.29" x="5198.41" y="4073.28" type="priority"/>
    <node id="-45344288#1.130" x="5234.60" y="4159.65" type="priority"/>
    <node id="-45344288#1.14" x="5279.20" y="4267.20" type="priority"/>
    <node id="-45344288#1.184" x="5215.03" y="4109.74" type="priority"/>
    <node id="-45344288#1.71" x="5256.89" y="4214.47" type="priority"/>
    <node id="-45344290#0.39" x="5314.92" y="4481.65" type="priority"/>
    <node id="-45344290#0.42" x="5316.23" y="4484.34" type="priority"/>
    <node id="-45344290#0.45" x="5316.25" y="4486.92" type="priority"/>
    <node id="-45344290#0.47" x="5315.45" y="4488.38" type="priority"/>
    <node id="-45344290#3.23" x="5190.02" y="4292.16" type="priority"/>
    <node id="-45344290#3.33" x="5195.79" y="4300.76" type="priority"/>
    <node id="-45344290#3.44" x="5201.97" y="4308.78" type="priority"/>
    <node id="-45344290#5.104" x="5146.92" y="4180.21" type="priority"/>
    <node id="-45344290#5.34" x="5124.81" y="4114.17" type="priority"/>
    <node id="-45344291#0.114" x="5448.33" y="4436.03" type="priority"/>
    <node id="-45344291#0.24" x="5396.99" y="4362.32" type="priority"/>
    <node id="-45344291#1.24" x="5372.69" y="4320.82" type="priority"/>
    <node id="-45344291#3.129" x="5302.84" y="4204.90" type="priority"/>
    <node id="-45344291#3.134" x="5305.62" y="4210.05" type="priority"/>
    <node id="-45344291#3.143" x="5309.57" y="4218.25" type="priority"/>
    <node id="-45344291#3.170" x="5323.35" y="4241.31" type="priority"/>
    <node id="-45344291#3.58" x="5275.50" y="4139.64" type="priority"/>
    <node id="-45344291#4.36" x="5244.16" y="4065.84" type="priority"/>
    <node id="-45344292#0.106" x="5357.34" y="4403.91" type="priority"/>
    <node id="-45344292#0.143" x="5377.31" y="4435.47" type="priority"/>
    <node id="-45344292#0.247" x="5435.01" y="4521.91" type="priority"/>
    <node id="-45344292#0.4" x="5305.12" y="4316.91" type="priority"/>
    <node id="-45344292#0.6" x="5307.54" y="4317.56" type="priority"/>
    <node id="-45344292#0.63" x="5338.28" y="4365.30" type="priority"/>
    <node id="-45344292#0.75" x="5342.88" y="4376.19" type="priority"/>
    <node id="-45344293#1.78" x="5535.85" y="4295.17" type="priority"/>
    <node id="-45344293#2.10" x="5468.34" y="4238.29" type="priority"/>
    <node id="-45344293#2.11" x="5469.16" y="4239.44" type="priority"/>
    <node id="-45344293#2.12" x="5470.17" y="4240.37" type="priority"/>
    <node id="-45344293#2.14" x="5471.47" y="4240.68" type="priority"/>
    <node id="-45344293#2.15" x="5472.78" y="4240.68" type="priority"/>
    <node id="-45344293#2.16" x="5473.86" y="4240.39" type="priority"/>
    <node id="-45344293#2.18" x="5475.53" y="4239.62" type="priority"/>
    <node id="-45344294#4.18" x="5212.87" y="4040.95" type="priority"/>
    <node id="-45344294#4.7" x="5223.32" y="4036.05" type="priority"/>
    <node id="-45344294#5.7" x="5239.92" y="4024.96" type="priority"/>
    <node id="-45344294#6.25" x="5253.13" y="4019.71" type="priority"/>
    <node id="-45344294#6.9" x="5267.94" y="4013.64" type="priority"/>
    <node id="-45344295#1.36" x="5222.05" y="4240.31" type="priority"/>
    <node id="-45344295#1.64" x="5233.29" y="4265.27" type="priority"/>
    <node id="-45344295#1.77" x="5240.04" y="4276.68" type="priority"/>
    <node id="-45344295#2.38" x="5166.74" y="4101.45" type="priority"/>
    <node id="-45344295#2.87" x="5185.59" y="4146.69" type="priority"/>
    <node id="-45344296#0.150" x="5337.98" y="4154.96" type="priority"/>
    <node id="-45344296#0.92" x="5315.09" y="4102.00" type="priority"/>
    <node id="-45344297#0.11" x="5309.89" y="3926.41" type="priority"/>
    <node id="-45344297#2.114" x="5275.16" y="3910.76" type="priority"/>
    <node id="-45344297#2.119" x="5278.53" y="3915.13" type="priority"/>
    <node id="-45344297#2.124" x="5283.47" y="3914.97" type="priority"/>
    <node id="-45344297#2.135" x="5293.76" y="3912.13" type="priority"/>
    <node id="-45344297#2.24" x="5231.35" y="3832.41" type="priority"/>
    <node id="-45344297#2.87" x="5260.98" y="3888.59" type="priority"/>
    <node id="-45344297#3.42" x="5195.77" y="3767.48" type="priority"/>
    <node id="-45344299.101" x="4963.94" y="4036.10" type="priority"/>
    <node id="-45344299.106" x="4959.87" y="4037.42" type="priority"/>
    <node id="-45344299.40" x="5006.33" y="4065.03" type="priority"/>
    <node id="-45344299.79" x="4983.89" y="4033.24" type="priority"/>
    <node id="-45344299.80" x="4983.01" y="4032.12" type="priority"/>
    <node id="-45344299.82" x="4981.36" y="4030.92" type="priority"/>
    <node id="-45344299.84" x="4979.79" y="4030.23" type="priority"/>
    <node id="-45344299.86" x="4977.54" y="4029.90" type="priority"/>
    <node id="-45344299.89" x="4975.02" y="4030.44" type="priority"/>
    <node id="-45344299.97" x="4968.02" y="4034.70" type="priority"/>
    <node id="-45344299.99" x="4966.37" y="4035.22" type="priority"/>
    <node id="-45344304#1.10" x="4996.94" y="3987.40" type="priority"/>
    <node id="-45344304#1.52" x="4976.67" y="3949.72" type="priority"/>
    <node id="-45344304#2.28" x="5009.89" y="4008.74" type="priority"/>
    <node id="-45344304#3.29" x="5034.02" y="4042.55" type="priority"/>
    <node id="-45344304#6.31" x="5096.50" y="4148.25" type="priority"/>
    <node id="-45344304#6.5" x="5108.12" y="4171.20" type="priority"/>
    <node id="-45344304#6.62" x="5081.24" y="4120.93" type="priority"/>
    <node id="-45344304#8.11" x="5127.10" y="4217.53" type="priority"/>
    <node id="-45344310#0.10" x="4912.08" y="4638.53" type="priority"/>
    <node id="-45344310#0.18" x="4905.56" y="4643.68" type="priority"/>
    <node id="-45344310#0.30" x="4896.06" y="4650.63" type="priority"/>
    <node id="-45344310#0.41" x="4887.09" y="4657.12" type="priority"/>
    <node id="-45344310#0.52" x="4878.62" y="4663.15" type="priority"/>
    <node id="-45344314#4.42" x="5089.99" y="4455.09" type="priority"/>
    <node id="-45344315#0.31" x="5144.51" y="4601.79" type="priority"/>
    <node id="-45344315#1.25" x="5097.99" y="4532.33" type="priority"/>
    <node id="-45344320#0.48" x="5689.59" y="4144.37" type="priority"/>
    <node id="-45344320#0.63" x="5696.71" y="4157.81" type="priority"/>
    <node id="-45344320#0.71" x="5700.90" y="4164.69" type="priority"/>
    <node id="-45344320#0.79" x="5705.11" y="4171.23" type="priority"/>
    <node id="-45344320#5.17" x="5533.99" y="3878.00" type="priority"/>
    <node id="-45344320#6.26" x="5522.91" y="3855.14" type="priority"/>
    <node id="-45344320#7.12" x="5465.40" y="3783.69" type="priority"/>
    <node id="-45344320#7.25" x="5476.67" y="3777.49" type="priority"/>
    <node id="-45344320#7.29" x="5480.39" y="3777.01" type="priority"/>
    <node id="-45344320#7.33" x="5483.89" y="3778.15" type="priority"/>
    <node id="-45344320#7.37" x="5486.90" y="3780.96" type="priority"/>
    <node id="-45344320#7.54" x="5495.13" y="3795.85" type="priority"/>
    <node id="-45344320#7.6" x="5461.23" y="3787.99" type="priority"/>
    <node id="-45344324#1.118" x="5390.13" y="4101.60" type="priority"/>
    <node id="-45344324#1.126" x="5394.45" y="4109.43" type="priority"/>
    <node id="-45344324#1.146" x="5406.30" y="4124.40" type="priority"/>
    <node id="-45344324#1.161" x="5419.19" y="4133.38" type="priority"/>
    <node id="-45344324#1.75" x="5375.61" y="4061.36" type="priority"/>
    <node id="-45344326#0.20" x="5443.88" y="4047.17" type="priority"/>
    <node id="-45344326#0.39" x="5449.73" y="4064.57" type="priority"/>
    <node id="-45344326#2.15" x="5426.17" y="4010.55" type="priority"/>
    <node id="-45344335#0.49" x="5345.47" y="3899.22" type="priority"/>
    <node id="-45344336#6.35" x="5493.35" y="3709.26" type="priority"/>
    <node id="-45344336#7.6" x="5542.97" y="3812.89" type="priority"/>
    <node id="-45344336#8.20" x="5564.23" y="3824.82" type="priority"/>
    <node id="-45344336#8.27" x="5560.26" y="3819.57" type="priority"/>