<?xml version="1.0" encoding="UTF-8"?>

<!-- generated on Sun Jan 23 14:02:29 2022 by Eclipse SUMO netconvert Version 1.8.0
<configuration xmlns:xsi="http://www.w3.org/2001/XMLSchema-instance" xsi:noNamespaceSchemaLocation="http://sumo.dlr.de/xsd/netconvertConfiguration.xsd">

    <input>
        <sumo-net-file value="islington.net.xml"/>
    </input>

    <output>
        <plain-output-prefix value="temp"/>
    </output>

    <processing>
        <geometry.min-radius.fix.railways value="false"/>
        <geometry.max-grade.fix value="false"/>
        <offset.disable-normalization value="true"/>
        <lefthand value="false"/>
    </processing>

    <junctions>
        <no-turnarounds value="true"/>
        <junctions.corner-detail value="5"/>
        <junctions.limit-turn-speed value="5.5"/>
        <rectangular-lane-cut value="false"/>
    </junctions>

    <pedestrian>
        <walkingareas value="false"/>
    </pedestrian>

    <report>
        <aggregate-warnings value="5"/>
    </report>

</configuration>
-->

<edges version="1.6" xmlns:xsi="http://www.w3.org/2001/XMLSchema-instance" xsi:noNamespaceSchemaLocation="http://sumo.dlr.de/xsd/edges_file.xsd">
    <edge id="-1000397302#10" from="1653312328" to="27413597" priority="12" type="highway.primary" numLanes="2" speed="8.94" shape="2020.27,4623.48 2009.86,4637.89 2000.15,4651.64 1977.54,4683.67 1973.19,4689.85 1961.91,4706.41 1960.98,4707.76 1925.32,4754.92" disallow="tram rail_urban rail rail_electric rail_fast ship">
        <param key="ref" value="A103"/>
    </edge>
    <edge id="-1000397302#2" from="27413417" to="220861" priority="12" type="highway.primary" numLanes="2" speed="8.94" shape="1878.63,4821.07 1838.74,4878.35 1826.94,4895.77 1800.40,4934.91 1795.89,4941.42" disallow="tram rail_urban rail rail_electric rail_fast ship">
        <param key="ref" value="A103"/>
    </edge>
    <edge id="-1000397302#5" from="27413597" to="27413417" priority="12" type="highway.primary" numLanes="2" speed="8.94" shape="1925.32,4754.92 1912.23,4773.37 1904.38,4784.83 1878.63,4821.07" disallow="tram rail_urban rail rail_electric rail_fast ship">
        <param key="ref" value="A103"/>
    </edge>
    <edge id="-100306119" from="cluster_418036921_506861368" to="452433540" priority="4" type="highway.unclassified" numLanes="1" speed="8.94" shape="2552.79,641.85 2546.51,634.12 2542.91,629.38 2526.08,603.85 2524.85,602.66 2523.02,601.89" disallow="tram rail_urban rail rail_electric rail_fast ship"/>
    <edge id="-100306144" from="25472788" to="25472783" priority="3" type="highway.residential" numLanes="1" speed="8.94" shape="2490.47,849.70 2495.92,851.19 2545.00,891.34 2549.55,894.10" disallow="tram rail_urban rail rail_electric rail_fast ship"/>
    <edge id="-100514384#2" from="108396" to="25472186" priority="12" type="highway.primary" numLanes="1" speed="8.94" shape="3098.56,452.29 3088.32,451.37 3082.41,451.12 3070.38,450.63 3054.76,451.16 3040.80,452.17 3017.30,454.34" disallow="tram rail_urban rail rail_electric rail_fast ship">
        <param key="ref" value="A5201"/>
    </edge>
    <edge id="-100514387#3" from="cluster_110234_25499953" to="242245" priority="12" type="highway.primary" numLanes="2" speed="8.94" shape="3646.91,711.79 3648.40,712.40 3651.56,713.72 3655.29,715.27 3678.61,724.96 3687.55,728.68" disallow="tram rail_urban rail rail_electric rail_fast ship">
        <param key="ref" value="A5201"/>
    </edge>
    <edge id="-10074845#1" from="82793746" to="82793745" priority="3" type="highway.residential" numLanes="1" speed="8.94" shape="766.62,5394.33 767.62,5404.99 771.36,5418.47 775.41,5428.14 809.70,5482.02" disallow="tram rail_urban rail rail_electric rail_fast ship"/>
    <edge id="-10074847" from="620787659" to="cluster_4565933454_5230657045" priority="3" type="highway.residential" numLanes="1" speed="8.94" shape="544.24,5461.11 549.55,5464.36 569.65,5476.69 595.13,5498.24 688.22,5592.39 723.84,5630.96 759.93,5675.85" disallow="tram rail_urban rail rail_electric rail_fast ship"/>
    <edge id="-10074850" from="82793760" to="82793758" priority="3" type="highway.residential" numLanes="1" speed="8.94" disallow="tram rail_urban rail rail_electric rail_fast ship"/>
    <edge id="-10074851#0" from="82793760" to="5229748198" priority="3" type="highway.residential" numLanes="1" speed="8.94" shape="506.64,5697.33 543.11,5748.88 543.86,5756.92 527.38,5781.86 515.54,5798.80" disallow="tram rail_urban rail rail_electric rail_fast ship"/>
    <edge id="-10074851#1" from="5229748193" to="82793760" priority="3" type="highway.residential" numLanes="1" speed="8.94" shape="420.43,5733.45 437.83,5706.91 462.38,5680.67 488.64,5679.03 506.64,5697.33" disallow="tram rail_urban rail rail_electric rail_fast ship"/>
    <edge id="-10074852#1" from="82793746" to="25536028" priority="3" type="highway.residential" numLanes="1" speed="8.94" shape="766.62,5394.33 755.68,5398.95 665.04,5467.78 663.41,5472.83 667.19,5480.00 738.77,5542.23" disallow="tram rail_urban rail rail_electric rail_fast ship"/>
    <edge id="-10074852#3" from="493380776" to="82793746" priority="3" type="highway.residential" numLanes="1" speed="8.94" shape="806.28,5337.20 787.55,5353.91 770.69,5371.86 766.84,5382.93 766.62,5394.33" disallow="tram rail_urban rail rail_electric rail_fast ship"/>
    <edge id="-10074854#1" from="82793770" to="5230051103" priority="3" type="highway.residential" numLanes="1" speed="8.94" shape="417.26,5416.26 384.43,5377.07 382.02,5374.13 368.07,5357.15" disallow="tram rail_urban rail rail_electric rail_fast ship"/>
    <edge id="-10074854#2" from="82793771" to="82793770" priority="3" type="highway.residential" numLanes="1" speed="8.94" disallow="tram rail_urban rail rail_electric rail_fast ship"/>
    <edge id="-10074855" from="82793773" to="82793770" priority="3" type="highway.residential" numLanes="1" speed="8.94" shape="524.88,5411.57 465.63,5379.69 461.38,5379.46 457.39,5381.04 417.26,5416.26" disallow="tram rail_urban rail rail_electric rail_fast ship"/>
    <edge id="-10074856" from="82793776" to="4060361433" priority="3" type="highway.residential" numLanes="1" speed="8.94" shape="469.88,5509.69 366.79,5450.93 337.10,5409.36 323.96,5392.35" disallow="tram rail_urban rail rail_electric rail_fast ship"/>
    <edge id="-100864618" from="4860099437" to="198178" priority="3" type="highway.residential" numLanes="1" speed="8.94" disallow="tram rail_urban rail rail_electric rail_fast ship"/>
    <edge id="-102247540" from="248228874" to="772313289" priority="3" type="highway.residential" numLanes="1" speed="8.94" disallow="tram rail_urban rail rail_electric rail_fast ship"/>
    <edge id="-102273802#2" from="331522317" to="1169595198" priority="4" type="highway.unclassified" numLanes="1" speed="2.24" shape="2860.73,1866.70 2854.53,1877.72 2853.39,1880.00 2851.52,1883.83 2850.85,1885.99 2850.77,1888.88 2851.86,1892.52 2853.70,1900.65" disallow="tram rail_urban rail rail_electric rail_fast ship"/>
    <edge id="-102745233" from="25499800" to="25499808" priority="4" type="highway.unclassified" numLanes="1" speed="8.94" shape="3394.55,341.97 3390.12,419.12 3399.38,420.86 3408.48,423.15 3418.51,427.13" disallow="tram rail_urban rail rail_electric rail_fast ship"/>
    <edge id="-10338067#1" from="cluster_33842961_385018624" to="199428" priority="12" type="highway.primary" numLanes="2" speed="8.94" shape="1870.56,5790.29 1844.46,5808.95 1841.29,5810.78 1839.38,5811.96 1821.22,5823.09 1804.99,5832.89 1791.93,5841.24 1773.44,5854.15 1763.42,5861.68" disallow="tram rail_urban rail rail_electric rail_fast ship">
        <param key="ref" value="A1201"/>
    </edge>
    <edge id="-106778917#1" from="279651261" to="279651255" priority="3" type="highway.residential" numLanes="1" speed="8.94" shape="2014.38,5244.83 1930.65,5323.43 1915.27,5337.22 1911.94,5337.73 1908.35,5336.75 1902.12,5333.98 1894.91,5333.07 1887.04,5333.28 1872.97,5337.16 1854.27,5344.52 1844.54,5347.70 1834.05,5349.40 1820.92,5349.37 1807.77,5347.18" disallow="tram rail_urban rail rail_electric rail_fast ship"/>
    <edge id="-110415718#0" from="5500119859" to="306223890" priority="3" type="highway.residential" numLanes="1" speed="8.94" disallow="tram rail_urban rail rail_electric rail_fast ship"/>
    <edge id="-110415718#5" from="cluster_11312063_221795" to="5500119859" priority="3" type="highway.residential" numLanes="1" speed="8.94" shape="2914.17,2902.06 2907.79,2902.57 2906.64,2902.54 2901.35,2902.99 2873.18,2906.07 2863.80,2907.42 2854.50,2909.01 2848.15,2909.18 2828.94,2907.53 2794.09,2903.51 2781.75,2902.65 2769.43,2902.27 2749.96,2902.00" disallow="tram rail_urban rail rail_electric rail_fast ship"/>
    <edge id="-110459076" from="1828532835" to="32705616" priority="12" type="highway.primary" numLanes="1" speed="8.94" shape="3659.51,4642.19 3655.78,4651.33 3653.86,4656.30 3652.39,4661.63 3649.92,4673.83" disallow="tram rail_urban rail rail_electric rail_fast ship">
        <param key="ref" value="A105"/>
    </edge>
    <edge id="-112318451#0" from="727604717" to="1276963413" priority="3" type="highway.residential" numLanes="1" speed="8.94" disallow="tram rail_urban rail rail_electric rail_fast ship"/>
    <edge id="-112318451#5" from="727604733" to="727604717" priority="3" type="highway.residential" numLanes="1" speed="8.94" shape="1863.68,6057.99 1829.71,6018.05 1828.93,6009.43 1829.89,6002.15 1830.03,6001.12 1830.26,5999.40 1829.34,5991.62 1827.26,5984.24 1825.29,5976.16 1821.06,5965.98 1822.96,5962.64 1828.49,5957.76" disallow="tram rail_urban rail rail_electric rail_fast ship"/>
    <edge id="-11303480#1" from="25895018" to="cluster_220848_25536286" priority="12" type="highway.primary" numLanes="2" speed="8.94" shape="1460.06,5446.09 1459.03,5447.66 1452.42,5457.77 1440.12,5477.14 1427.84,5496.49 1421.08,5507.10" disallow="tram rail_urban rail rail_electric rail_fast ship">
        <param key="ref" value="A103"/>
    </edge>
    <edge id="-11303480#2" from="26198148" to="25895018" priority="12" type="highway.primary" numLanes="2" speed="8.94" disallow="tram rail_urban rail rail_electric rail_fast ship">
        <param key="ref" value="A103"/>
    </edge>
    <edge id="-11303480#5" from="cluster_220847_7711687429" to="26198148" priority="12" type="highway.primary" numLanes="2" speed="8.94" shape="1518.46,5348.47 1511.87,5359.46 1509.36,5363.73 1507.35,5367.11 1496.50,5385.38 1494.66,5388.96" disallow="tram rail_urban rail rail_electric rail_fast ship">
        <param key="ref" value="A103"/>
    </edge>
    <edge id="-11303483#1" from="25536002" to="493394843" priority="3" type="highway.residential" numLanes="1" speed="8.94" shape="922.27,5344.36 909.47,5357.36 878.23,5387.44" disallow="tram rail_urban rail rail_electric rail_fast ship"/>
    <edge id="-11303483#10" from="25592008" to="848083903" priority="3" type="highway.residential" numLanes="1" speed="8.94" shape="1067.59,5218.01 1064.33,5220.92 1043.29,5239.59" disallow="tram rail_urban rail rail_electric rail_fast ship"/>
    <edge id="-11303483#11" from="30785797" to="25592008" priority="3" type="highway.residential" numLanes="1" speed="8.94" disallow="tram rail_urban rail rail_electric rail_fast ship"/>
    <edge id="-11303483#12" from="26198407" to="30785797" priority="3" type="highway.residential" numLanes="1" speed="8.94" disallow="tram rail_urban rail rail_electric rail_fast ship"/>
    <edge id="-11303483#6" from="25592002" to="25536002" priority="3" type="highway.residential" numLanes="1" speed="8.94" shape="992.02,5283.92 975.91,5297.61 956.19,5314.36 946.06,5322.58 931.12,5336.81 922.27,5344.36" disallow="tram rail_urban rail rail_electric rail_fast ship"/>
    <edge id="-11303483#8" from="848083903" to="25592002" priority="3" type="highway.residential" numLanes="1" speed="8.94" shape="1043.29,5239.59 999.33,5277.89 992.02,5283.92" disallow="tram rail_urban rail rail_electric rail_fast ship"/>
    <edge id="-11311845#0" from="25895024" to="114247738" priority="3" type="highway.residential" numLanes="1" speed="8.94" disallow="tram rail_urban rail rail_electric rail_fast ship"/>
    <edge id="-11311845#1" from="25895022" to="25895024" priority="3" type="highway.residential" numLanes="1" speed="8.94" disallow="tram rail_urban rail rail_electric rail_fast ship"/>
    <edge id="-11311846#0" from="25895027" to="100613283" priority="3" type="highway.residential" numLanes="1" speed="8.94" disallow="tram rail_urban rail rail_electric rail_fast ship"/>
    <edge id="-11311846#2" from="cluster_25894992_7235721422" to="25895027" priority="3" type="highway.residential" numLanes="1" speed="8.94" shape="1717.60,5522.65 1693.19,5553.21 1666.98,5586.03" disallow="tram rail_urban rail rail_electric rail_fast ship"/>
    <edge id="-11311847" from="100613283" to="25895022" priority="3" type="highway.residential" numLanes="1" speed="8.94" shape="1638.56,5631.45 1620.15,5660.42 1614.44,5668.07" disallow="tram rail_urban rail rail_electric rail_fast ship"/>
    <edge id="-119404446#1" from="1341793748" to="1341793740" priority="3" type="highway.residential" numLanes="1" speed="8.94" shape="3779.31,4161.33 3776.74,4161.39 3770.81,4161.51 3766.79,4161.70 3763.16,4161.88" disallow="tram rail_urban rail rail_electric rail_fast ship"/>
    <edge id="-119438251" from="1342099857" to="1342099930" priority="4" type="highway.unclassified" numLanes="1" speed="8.94" shape="2450.42,1660.45 2448.19,1660.11 2451.73,1633.61" disallow="tram rail_urban rail rail_electric rail_fast ship"/>
    <edge id="-119695444#0" from="cluster_1343588169_674892644" to="cluster_108500_1343922650" priority="3" type="highway.residential" numLanes="1" speed="8.94" shape="2181.97,1711.89 2173.25,1712.71 2164.40,1710.49 2154.10,1706.30" disallow="tram rail_urban rail rail_electric rail_fast ship"/>
    <edge id="-119695444#2" from="1343922641" to="cluster_1343588169_674892644" priority="3" type="highway.residential" numLanes="1" speed="8.94" shape="2200.81,1709.66 2183.66,1711.58" disallow="tram rail_urban rail rail_electric rail_fast ship"/>
    <edge id="-119695444#3" from="674892621" to="1343922641" priority="3" type="highway.residential" numLanes="1" speed="8.94" disallow="tram rail_urban rail rail_electric rail_fast ship"/>
    <edge id="-119695444#4" from="674892617" to="674892621" priority="3" type="highway.residential" numLanes="1" speed="8.94" disallow="tram rail_urban rail rail_electric rail_fast ship"/>
    <edge id="-119695444#7" from="8987997206" to="674892617" priority="3" type="highway.residential" numLanes="1" speed="8.94" shape="2286.66,1735.38 2292.97,1729.96 2298.34,1722.60 2306.46,1715.12 2306.55,1713.63 2306.81,1709.66 2307.30,1703.26 2286.45,1700.33 2274.83,1701.37 2248.73,1704.39" disallow="tram rail_urban rail rail_electric rail_fast ship"/>
    <edge id="-119695446" from="1343922719" to="1343922641" priority="3" type="highway.residential" numLanes="1" speed="8.94" shape="2220.22,1736.78 2212.84,1733.21 2210.10,1732.95 2207.10,1732.05 2204.85,1730.38 2203.48,1728.44 2202.49,1726.02 2201.88,1723.19 2200.81,1709.66" disallow="tram rail_urban rail rail_electric rail_fast ship"/>
    <edge id="-120241882" from="905208045" to="1348711808" priority="3" type="highway.residential" numLanes="1" speed="8.94" shape="3036.03,1334.07 3044.60,1331.00 3057.34,1327.33 3062.40,1326.15" disallow="tram rail_urban rail rail_electric rail_fast ship"/>
    <edge id="-120324572" from="26815900" to="cluster_25455202_337866146" priority="3" type="highway.residential" numLanes="1" speed="8.94" shape="2600.09,1375.92 2576.41,1366.53 2547.72,1357.05" disallow="tram rail_urban rail rail_electric rail_fast ship"/>
    <edge id="-120340387" from="26506982" to="26506986" priority="3" type="highway.residential" numLanes="1" speed="8.94" shape="2953.53,1151.12 2936.82,1167.16 2934.15,1178.37" disallow="tram rail_urban rail rail_electric rail_fast ship"/>
    <edge id="-12542953#0" from="25894209" to="114308121" priority="3" type="highway.residential" numLanes="1" speed="8.94" disallow="tram rail_urban rail rail_electric rail_fast ship"/>
    <edge id="-12542953#1" from="25894106" to="25894209" priority="3" type="highway.residential" numLanes="1" speed="8.94" disallow="tram rail_urban rail rail_electric rail_fast ship"/>
    <edge id="-12542953#3" from="25894157" to="25894106" priority="3" type="highway.residential" numLanes="1" speed="8.94" shape="1940.89,4520.01 1937.16,4523.99 1893.08,4574.06 1872.81,4599.60 1810.04,4676.53" disallow="tram rail_urban rail rail_electric rail_fast ship"/>
    <edge id="-130628449#2" from="10512858" to="1438121190" priority="3" type="highway.residential" numLanes="1" speed="8.94" shape="3123.75,1166.05 3127.71,1169.20 3131.49,1173.05 3134.18,1178.51 3136.71,1195.40 3138.83,1221.59" disallow="tram rail_urban rail rail_electric rail_fast ship"/>
    <edge id="-130883593#1" from="52639096" to="1440487557" priority="13" type="highway.trunk" numLanes="1" speed="13.41" shape="765.34,5086.28 749.11,5095.91 731.38,5105.57" disallow="pedestrian bicycle tram rail_urban rail rail_electric rail_fast ship">
        <param key="ref" value="A1"/>
    </edge>
    <edge id="-130883593#2" from="25591623" to="52639096" priority="13" type="highway.trunk" numLanes="1" speed="13.41" disallow="pedestrian bicycle tram rail_urban rail rail_electric rail_fast ship">
        <param key="ref" value="A1"/>
    </edge>
    <edge id="-130883593#4" from="199582" to="25591623" priority="13" type="highway.trunk" numLanes="1" speed="13.41" shape="828.15,5052.14 818.45,5056.96 794.85,5070.34" disallow="pedestrian bicycle tram rail_urban rail rail_electric rail_fast ship">
        <param key="ref" value="A1"/>
    </edge>
    <edge id="-130883593#5" from="199583" to="199582" priority="13" type="highway.trunk" numLanes="1" speed="13.41" disallow="pedestrian bicycle tram rail_urban rail rail_electric rail_fast ship">
        <param key="ref" value="A1"/>
    </edge>
    <edge id="-131929958#0" from="620787403" to="5230051087" priority="11" type="highway.secondary" numLanes="1" speed="8.94" shape="200.99,5555.45 191.46,5552.65 151.07,5541.05 141.84,5538.09 135.99,5536.24" disallow="tram rail_urban rail rail_electric rail_fast ship">
        <param key="ref" value="B540"/>
    </edge>
    <edge id="-131929959#0" from="4060361433" to="5230051084" priority="11" type="highway.secondary" numLanes="1" speed="8.94" shape="323.96,5392.35 286.78,5421.87 243.01,5443.70 199.87,5469.21 193.87,5473.51 158.48,5501.29" disallow="tram rail_urban rail rail_electric rail_fast ship">
        <param key="ref" value="B519"/>
    </edge>
    <edge id="-131929959#1" from="5230051103" to="4060361433" priority="11" type="highway.secondary" numLanes="1" speed="8.94" disallow="tram rail_urban rail rail_electric rail_fast ship">
        <param key="ref" value="B519"/>
    </edge>
    <edge id="-131929959#4" from="478800302" to="5230051103" priority="11" type="highway.secondary" numLanes="1" speed="8.94" shape="475.77,5268.54 449.14,5287.81 430.79,5303.83 425.58,5308.38 398.30,5332.19 368.07,5357.15" disallow="tram rail_urban rail rail_electric rail_fast ship">
        <param key="ref" value="B519"/>
    </edge>
    <edge id="-132682380#0" from="727604677" to="cluster_199423_199424" priority="12" type="highway.primary" numLanes="2" speed="8.94" shape="1596.32,6025.07 1594.73,6028.07 1572.81,6068.92" disallow="tram rail_urban rail rail_electric rail_fast ship">
        <param key="ref" value="A1201"/>
    </edge>
    <edge id="-132682380#1" from="25893938" to="727604677" priority="12" type="highway.primary" numLanes="2" speed="8.94" disallow="tram rail_urban rail rail_electric rail_fast ship">
        <param key="ref" value="A1201"/>
    </edge>
    <edge id="-132682380#2" from="cluster_199425_25536510" to="25893938" priority="12" type="highway.primary" numLanes="2" speed="8.94" shape="1627.50,5978.25 1612.88,5996.58" disallow="tram rail_urban rail rail_electric rail_fast ship">
        <param key="ref" value="A1201"/>
    </edge>
    <edge id="-132682380#4" from="385018632" to="cluster_199425_25536510" priority="12" type="highway.primary" numLanes="2" speed="8.94" shape="1666.29,5939.18 1645.64,5958.92 1638.65,5966.31" disallow="tram rail_urban rail rail_electric rail_fast ship">
        <param key="ref" value="A1201"/>
    </edge>
    <edge id="-132682380#5" from="199427" to="385018632" priority="12" type="highway.primary" numLanes="2" speed="8.94" shape="1697.40,5912.81 1670.71,5935.00 1666.29,5939.18" disallow="tram rail_urban rail rail_electric rail_fast ship">
        <param key="ref" value="A1201"/>
    </edge>
    <edge id="-132682837" from="1459428238" to="4755596132" priority="3" type="highway.residential" numLanes="1" speed="13.89" shape="1378.77,5809.13 1374.42,5815.67 1371.90,5816.92 1366.28,5816.84 1341.37,5815.46" disallow="tram rail_urban rail rail_electric rail_fast ship"/>
    <edge id="-132682839" from="1459428243" to="245428713" priority="3" type="highway.residential" numLanes="1" speed="8.94" disallow="tram rail_urban rail rail_electric rail_fast ship"/>
    <edge id="-132682842" from="1459428225" to="cluster_1459428224_25893939" priority="3" type="highway.residential" numLanes="1" speed="8.94" shape="1427.48,5870.90 1446.96,5882.36" disallow="tram rail_urban rail rail_electric rail_fast ship"/>
    <edge id="-135556937" from="25878748" to="1488714412" priority="3" type="highway.residential" numLanes="1" speed="8.94" disallow="tram rail_urban rail rail_electric rail_fast ship"/>
    <edge id="-14001979" from="245428712" to="cluster_25893926_4448141575" priority="3" type="highway.residential" numLanes="1" speed="8.94" shape="1332.02,5907.77 1331.39,5930.42 1332.60,5943.92" disallow="tram rail_urban rail rail_electric rail_fast ship"/>
    <edge id="-140463816" from="1538875643" to="108499" priority="3" type="highway.residential" numLanes="1" speed="8.94" disallow="tram rail_urban rail rail_electric rail_fast ship"/>
    <edge id="-14351420#2" from="139322822" to="11312056" priority="3" type="highway.residential" numLanes="1" speed="8.94" shape="2602.95,2303.34 2620.11,2306.56 2622.96,2307.74 2625.03,2310.64 2625.51,2313.83 2621.56,2335.75 2616.48,2363.84 2615.28,2366.23 2612.91,2367.93 2610.40,2367.99 2603.24,2366.74 2591.58,2364.68" disallow="tram rail_urban rail rail_electric rail_fast ship"/>
    <edge id="-14351420#4" from="11312056" to="139322822" priority="3" type="highway.residential" numLanes="1" speed="8.94" shape="2591.58,2364.68 2573.56,2361.48 2570.96,2360.01 2569.27,2356.76 2569.28,2354.48 2573.90,2327.09 2577.96,2305.47 2578.89,2302.85 2581.98,2300.83 2585.10,2300.43 2602.95,2303.34" disallow="tram rail_urban rail rail_electric rail_fast ship"/>
    <edge id="-14351433" from="11312055" to="11312056" priority="3" type="highway.residential" numLanes="1" speed="8.94" shape="2579.32,2424.65 2580.32,2419.17 2591.58,2364.68" disallow="tram rail_urban rail rail_electric rail_fast ship"/>
    <edge id="-14351492#1" from="10514552" to="10514553" priority="4" type="highway.unclassified" numLanes="1" speed="8.94" shape="2797.74,2329.60 2788.43,2329.24 2784.49,2330.17 2781.80,2332.81 2780.69,2337.06 2779.55,2368.47 2778.82,2408.50 2779.69,2411.42 2781.14,2413.80 2784.19,2415.13 2797.09,2415.59" disallow="tram rail_urban rail rail_electric rail_fast ship"/>
    <edge id="-14351505#0" from="107099" to="11312049" priority="3" type="highway.residential" numLanes="1" speed="8.94" shape="2609.76,2111.98 2587.75,2112.31 2581.82,2109.62 2579.43,2104.96 2578.96,2085.76" disallow="tram rail_urban rail rail_electric rail_fast ship"/>
    <edge id="-14351505#1" from="11312052" to="107099" priority="3" type="highway.residential" numLanes="1" speed="8.94" shape="2636.92,2087.46 2637.23,2102.24 2633.85,2108.35 2627.60,2110.98 2609.76,2111.98" disallow="tram rail_urban rail rail_electric rail_fast ship"/>
    <edge id="-14351505#2" from="107093" to="11312052" priority="3" type="highway.residential" numLanes="1" speed="8.94" shape="2608.37,2061.85 2627.31,2061.58 2632.74,2062.87 2636.27,2066.80 2636.92,2087.46" disallow="tram rail_urban rail rail_electric rail_fast ship"/>
    <edge id="-14351526#0" from="11143781" to="139329337" priority="3" type="highway.residential" numLanes="1" speed="8.94" disallow="tram rail_urban rail rail_electric rail_fast ship"/>
    <edge id="-14351526#1" from="cluster_11143782_299310088" to="11143781" priority="3" type="highway.residential" numLanes="1" speed="8.94" shape="2902.61,2341.56 2869.50,2337.06" disallow="tram rail_urban rail rail_electric rail_fast ship"/>
    <edge id="-14351526#3" from="cluster_107087_139330575" to="cluster_11143782_299310088" priority="3" type="highway.residential" numLanes="1" speed="8.94" shape="2995.36,2355.31 2989.80,2354.44 2915.56,2343.25" disallow="tram rail_urban rail rail_electric rail_fast ship"/>
    <edge id="-14351598#3" from="10605468" to="139332275" priority="4" type="highway.unclassified" numLanes="1" speed="8.94" shape="3054.60,2390.59 3051.53,2416.00 3045.21,2474.82 3044.00,2483.82 3042.22,2489.45 3036.68,2491.90 2989.75,2491.28 2976.95,2490.73 2971.53,2490.49" disallow="tram rail_urban rail rail_electric rail_fast ship"/>
    <edge id="-14351598#5" from="10587698" to="10605468" priority="4" type="highway.unclassified" numLanes="1" speed="8.94" shape="3052.17,2330.52 3054.46,2335.11 3056.35,2346.91 3057.03,2370.21 3054.60,2390.59" disallow="tram rail_urban rail rail_electric rail_fast ship"/>
    <edge id="-14351728" from="199348499" to="12009236" priority="3" type="highway.residential" numLanes="1" speed="8.94" shape="2483.29,2982.29 2475.67,3004.98 2457.79,3051.16 2455.05,3058.72" disallow="tram rail_urban rail rail_electric rail_fast ship"/>
    <edge id="-14618943#1" from="cluster_26625329_5229748203" to="620787586" priority="3" type="highway.residential" numLanes="1" speed="8.94" shape="651.46,5775.83 625.61,5804.03 582.37,5852.53" disallow="tram rail_urban rail rail_electric rail_fast ship"/>
    <edge id="-14619731#0" from="25536028" to="82793746" priority="3" type="highway.residential" numLanes="1" speed="8.94" shape="738.77,5542.23 667.19,5480.00 663.41,5472.83 665.04,5467.78 755.68,5398.95 766.62,5394.33" disallow="tram rail_urban rail rail_electric rail_fast ship"/>
    <edge id="-14619731#1" from="25536034" to="25536028" priority="3" type="highway.residential" numLanes="1" speed="8.94" disallow="tram rail_urban rail rail_electric rail_fast ship"/>
    <edge id="-146418648#1" from="198381" to="198383" priority="12" type="highway.primary" numLanes="2" speed="8.94" shape="2529.13,807.07 2564.66,839.70 2577.13,853.32 2609.90,884.89" disallow="tram rail_urban rail rail_electric rail_fast ship">
        <param key="ref" value="A401"/>
    </edge>
    <edge id="-146418648#2" from="25472886" to="198381" priority="12" type="highway.primary" numLanes="2" speed="8.94" shape="2505.39,763.44 2507.91,772.83 2510.65,780.16 2514.33,788.06 2518.72,795.09 2529.13,807.07" disallow="tram rail_urban rail rail_electric rail_fast ship">
        <param key="ref" value="A401"/>
    </edge>
    <edge id="-146418662" from="2780691955" to="198383" priority="11" type="highway.secondary" numLanes="1" speed="8.94" shape="2668.28,877.65 2651.77,878.17 2617.16,883.86 2609.90,884.89" disallow="tram rail_urban rail rail_electric rail_fast ship">
        <param key="ref" value="B502"/>
    </edge>
    <edge id="-146590618" from="2094988863" to="300070441" priority="12" type="highway.primary" numLanes="1" speed="8.94" shape="3321.31,2345.90 3285.92,2307.57 3278.95,2299.47" disallow="tram rail_urban rail rail_electric rail_fast ship">
        <param key="ref" value="A104"/>
    </edge>
    <edge id="-146590642#1" from="198385" to="cluster_1750077461_25474488_26508142_26508280" priority="12" type="highway.primary" numLanes="2" speed="8.94" shape="2697.61,1003.01 2700.69,1008.84 2706.39,1019.87 2709.83,1026.84" disallow="tram rail_urban rail rail_electric rail_fast ship">
        <param key="ref" value="A401"/>
    </edge>
    <edge id="-146590642#3" from="25474487" to="198385" priority="12" type="highway.primary" numLanes="2" speed="8.94" shape="2674.42,966.53 2688.92,986.92 2697.61,1003.01" disallow="tram rail_urban rail rail_electric rail_fast ship">
        <param key="ref" value="A401"/>
    </edge>
    <edge id="-151469109#1" from="1343156549" to="156623829" priority="3" type="highway.residential" numLanes="1" speed="8.94" shape="1673.30,2255.05 1640.80,2244.84 1621.53,2238.65 1612.78,2236.91" disallow="tram rail_urban rail rail_electric rail_fast ship"/>
    <edge id="-151942042#1" from="25475439" to="870487559" priority="4" type="highway.unclassified" numLanes="1" speed="8.94" shape="2356.94,1287.79 2355.94,1294.68 2345.76,1324.38 2339.78,1345.87" disallow="tram rail_urban rail rail_electric rail_fast ship"/>
    <edge id="-154540870#0" from="1670708057" to="1670708054" priority="3" type="highway.residential" numLanes="1" speed="8.94" shape="3055.71,1500.72 3083.23,1482.69 3107.28,1468.11" disallow="tram rail_urban rail rail_electric rail_fast ship"/>
    <edge id="-154540870#2" from="1670708067" to="1670708057" priority="3" type="highway.residential" numLanes="1" speed="8.94" shape="2957.71,1562.37 2977.90,1549.19 2988.12,1543.16 3037.74,1511.40 3055.71,1500.72" disallow="tram rail_urban rail rail_electric rail_fast ship"/>
    <edge id="-154540879#2" from="1670708036" to="1670708026" priority="3" type="highway.residential" numLanes="1" speed="8.94" shape="3205.03,1437.52 3180.16,1431.49 3160.25,1425.82 3130.00,1420.63" disallow="tram rail_urban rail rail_electric rail_fast ship"/>
    <edge id="-154540879#3" from="1670708038" to="1670708036" priority="3" type="highway.residential" numLanes="1" speed="8.94" disallow="tram rail_urban rail rail_electric rail_fast ship"/>