<?xml version="1.0" encoding="UTF-8"?>

<!-- generated on Sun Jan 23 14:02:29 2022 by Eclipse SUMO netconvert Version 1.8.0
<configuration xmlns:xsi="http://www.w3.org/2001/XMLSchema-instance" xsi:noNamespaceSchemaLocation="http://sumo.dlr.de/xsd/netconvertConfiguration.xsd">

    <input>
        <sumo-net-file value="islington.net.xml"/>
    </input>

    <output>
        <plain-output-prefix value="temp"/>
    </output>

    <processing>
        <geometry.min-radius.fix.railways value="false"/>
        <geometry.max-grade.fix value="false"/>
        <offset.disable-normalization value="true"/>
        <lefthand value="false"/>
    </processing>

    <junctions>
        <no-turnarounds value="true"/>
        <junctions.corner-detail value="5"/>
        <junctions.limit-turn-speed value="5.5"/>
        <rectangular-lane-cut value="false"/>
    </junctions>

    <pedestrian>
        <walkingareas value="false"/>
    </pedestrian>

    <report>
        <aggregate-warnings value="5"/>
    </report>

</configuration>
-->

<connections version="1.6" xmlns:xsi="http://www.w3.org/2001/XMLSchema-instance" xsi:noNamespaceSchemaLocation="http://sumo.dlr.de/xsd/connections_file.xsd">
    <connection from="-1000397302#10" to="25654281#0" fromLane="0" toLane="0"/>
    <connection from="-1000397302#10" to="-1000397302#5" fromLane="0" toLane="0"/>
    <connection from="-1000397302#10" to="-1000397302#5" fromLane="1" toLane="1"/>
    <connection from="-1000397302#10" to="1000397302#6" fromLane="1" toLane="1"/>

    <connection from="-1000397302#2" to="-51238445#13" fromLane="0" toLane="0"/>
    <connection from="-1000397302#2" to="-51238445#13" fromLane="1" toLane="1"/>
    <connection from="-1000397302#2" to="23046215#0" fromLane="1" toLane="0"/>
    <connection from="-1000397302#2" to="1000397302#0" fromLane="1" toLane="1"/>

    <connection from="-1000397302#5" to="-31646048#2" fromLane="0" toLane="0"/>
    <connection from="-1000397302#5" to="-1000397302#2" fromLane="0" toLane="0"/>
    <connection from="-1000397302#5" to="-1000397302#2" fromLane="1" toLane="1"/>
    <connection from="-1000397302#5" to="1000397302#3" fromLane="1" toLane="1"/>

    <connection from="-100306119" to="-4255399#1" fromLane="0" toLane="0"/>
    <connection from="-100306119" to="74167680" fromLane="0" toLane="0"/>
    <connection from="-100306119" to="100306119" fromLane="0" toLane="0"/>

    <connection from="-100306144" to="4253685" fromLane="0" toLane="0"/>
    <connection from="-100306144" to="-4253686" fromLane="0" toLane="0"/>
    <connection from="-100306144" to="100306144" fromLane="0" toLane="0"/>

    <connection from="-100514384#2" to="625847266#0" fromLane="0" toLane="0"/>
    <connection from="-100514384#2" to="-257778376" fromLane="0" toLane="0"/>
    <connection from="-100514384#2" to="-4253429#2" fromLane="0" toLane="0"/>
    <connection from="-100514384#2" to="100514384#0" fromLane="0" toLane="0"/>

    <connection from="-100514387#3" to="-596680098#8" fromLane="0" toLane="0"/>
    <connection from="-100514387#3" to="-596680098#8" fromLane="1" toLane="1"/>
    <connection from="-100514387#3" to="-4255940#1" fromLane="1" toLane="0"/>
    <connection from="-100514387#3" to="100514387#0" fromLane="1" toLane="1"/>

    <connection from="-10074845#1" to="4264831#1" fromLane="0" toLane="0"/>
    <connection from="-10074845#1" to="-4264831#0" fromLane="0" toLane="0"/>
    <connection from="-10074845#1" to="10074845#0" fromLane="0" toLane="0"/>

    <connection from="-10074847" to="22815086#5" fromLane="0" toLane="0"/>
    <connection from="-10074847" to="8399705#0" fromLane="0" toLane="0"/>
    <connection from="-10074847" to="-22815086#3" fromLane="0" toLane="0"/>
    <connection from="-10074847" to="10074847" fromLane="0" toLane="0"/>

    <connection from="-10074850" to="566876303#1" fromLane="0" toLane="0"/>
    <connection from="-10074850" to="-566876303#0" fromLane="0" toLane="0"/>
    <connection from="-10074850" to="10074850" fromLane="0" toLane="0"/>

    <connection from="-10074851#0" to="395164397#0" fromLane="0" toLane="0"/>
    <connection from="-10074851#0" to="-395164398#4" fromLane="0" toLane="0"/>
    <connection from="-10074851#0" to="10074851#0" fromLane="0" toLane="0"/>

    <connection from="-10074851#1" to="-10074850" fromLane="0" toLane="0"/>
    <connection from="-10074851#1" to="-10074851#0" fromLane="0" toLane="0"/>
    <connection from="-10074851#1" to="10074851#1" fromLane="0" toLane="0"/>

    <connection from="-10074852#1" to="4264831#0" fromLane="0" toLane="0"/>
    <connection from="-10074852#1" to="14619731#1" fromLane="0" toLane="0"/>
    <connection from="-10074852#1" to="-14619731#0" fromLane="0" toLane="0"/>

    <connection from="-10074852#3" to="-10074845#1" fromLane="0" toLane="0"/>
    <connection from="-10074852#3" to="-10074852#1" fromLane="0" toLane="0"/>
    <connection from="-10074852#3" to="10074852#2" fromLane="0" toLane="0"/>

    <connection from="-10074854#1" to="-131929959#1" fromLane="0" toLane="0"/>
    <connection from="-10074854#1" to="131929959#2" fromLane="0" toLane="0"/>
    <connection from="-10074854#1" to="10074854#0" fromLane="0" toLane="0"/>

    <connection from="-10074854#2" to="-10074854#1" fromLane="0" toLane="0"/>
    <connection from="-10074854#2" to="10074855" fromLane="0" toLane="0"/>
    <connection from="-10074854#2" to="10074854#2" fromLane="0" toLane="0"/>

    <connection from="-10074855" to="10074854#2" fromLane="0" toLane="0"/>
    <connection from="-10074855" to="-10074854#1" fromLane="0" toLane="0"/>
    <connection from="-10074855" to="10074855" fromLane="0" toLane="0"/>

    <connection from="-10074856" to="-131929959#0" fromLane="0" toLane="0"/>
    <connection from="-10074856" to="131929959#1" fromLane="0" toLane="0"/>
    <connection from="-10074856" to="10074856" fromLane="0" toLane="0"/>

    <connection from="-100864618" to="435349867#1" fromLane="0" toLane="0"/>
    <connection from="-100864618" to="100864618" fromLane="0" toLane="0"/>

    <connection from="-102247540" to="-78148640#1" fromLane="0" toLane="0"/>
    <connection from="-102247540" to="-61948694#1" fromLane="0" toLane="0"/>
    <connection from="-102247540" to="102247540" fromLane="0" toLane="0"/>

    <connection from="-102273802#2" to="30097933#1" fromLane="0" toLane="0"/>
    <connection from="-102273802#2" to="102273802#0" fromLane="0" toLane="0"/>

    <connection from="-102745233" to="-694839518#0" fromLane="0" toLane="0"/>
    <connection from="-102745233" to="694839518#1" fromLane="0" toLane="0"/>
    <connection from="-102745233" to="4255539" fromLane="0" toLane="0"/>

    <connection from="-10338067#1" to="-58714011#5" fromLane="0" toLane="0"/>
    <connection from="-10338067#1" to="-385346460#0" fromLane="0" toLane="0"/>
    <connection from="-10338067#1" to="-385346460#0" fromLane="1" toLane="1"/>
    <connection from="-10338067#1" to="-8364695#2" fromLane="1" toLane="0"/>
    <connection from="-10338067#1" to="385346460#1" fromLane="1" toLane="1"/>

    <connection from="-106778917#1" to="30901941#0" fromLane="0" toLane="0"/>

    <connection from="-110415718#0" to="110415718#0" fromLane="0" toLane="0"/>

    <connection from="-110415718#5" to="-27890698" fromLane="0" toLane="0"/>
    <connection from="-110415718#5" to="-110415718#0" fromLane="0" toLane="0"/>
    <connection from="-110415718#5" to="110415718#1" fromLane="0" toLane="0"/>

    <connection from="-110459076" to="-623643717" fromLane="0" toLane="0"/>

    <connection from="-112318451#0" to="58714011#1" fromLane="0" toLane="0"/>
    <connection from="-112318451#0" to="-58714011#0" fromLane="0" toLane="0"/>
    <connection from="-112318451#0" to="112318451#0" fromLane="0" toLane="0"/>

    <connection from="-112318451#5" to="-58714013" fromLane="0" toLane="0"/>
    <connection from="-112318451#5" to="-112318451#0" fromLane="0" toLane="0"/>
    <connection from="-112318451#5" to="112318451#1" fromLane="0" toLane="0"/>

    <connection from="-11303480#1" to="8376184#0" fromLane="0" toLane="0"/>
    <connection from="-11303480#1" to="4286559#2" fromLane="0" toLane="0"/>
    <connection from="-11303480#1" to="4286559#2" fromLane="1" toLane="1"/>
    <connection from="-11303480#1" to="-4317585#8" fromLane="1" toLane="0"/>
    <connection from="-11303480#1" to="-4286559#0" fromLane="1" toLane="1"/>

    <connection from="-11303480#2" to="8376187#0" fromLane="0" toLane="0"/>
    <connection from="-11303480#2" to="-11303480#1" fromLane="0" toLane="0"/>
    <connection from="-11303480#2" to="-11303480#1" fromLane="1" toLane="1"/>
    <connection from="-11303480#2" to="11303480#2" fromLane="1" toLane="1"/>

    <connection from="-11303480#5" to="-11303480#2" fromLane="0" toLane="0"/>
    <connection from="-11303480#5" to="-11303480#2" fromLane="1" toLane="1"/>
    <connection from="-11303480#5" to="-4317584" fromLane="1" toLane="0"/>
    <connection from="-11303480#5" to="11303480#3" fromLane="1" toLane="1"/>

    <connection from="-11303483#1" to="745710894#0" fromLane="0" toLane="0"/>
    <connection from="-11303483#1" to="11303483#0" fromLane="0" toLane="0"/>

    <connection from="-11303483#10" to="-284348477" fromLane="0" toLane="0"/>
    <connection from="-11303483#10" to="-11303483#8" fromLane="0" toLane="0"/>
    <connection from="-11303483#10" to="11303483#9" fromLane="0" toLane="0"/>

    <connection from="-11303483#11" to="-11303483#10" fromLane="0" toLane="0"/>
    <connection from="-11303483#11" to="-4798248#2" fromLane="0" toLane="0"/>
    <connection from="-11303483#11" to="11303483#11" fromLane="0" toLane="0"/>

    <connection from="-11303483#12" to="4798142" fromLane="0" toLane="0"/>
    <connection from="-11303483#12" to="-11303483#11" fromLane="0" toLane="0"/>
    <connection from="-11303483#12" to="11303483#12" fromLane="0" toLane="0"/>

    <connection from="-11303483#6" to="-11303483#1" fromLane="0" toLane="0"/>
    <connection from="-11303483#6" to="4264794" fromLane="0" toLane="0"/>
    <connection from="-11303483#6" to="11303483#2" fromLane="0" toLane="0"/>

    <connection from="-11303483#8" to="-11303483#6" fromLane="0" toLane="0"/>
    <connection from="-11303483#8" to="-4333547#6" fromLane="0" toLane="0"/>
    <connection from="-11303483#8" to="11303483#7" fromLane="0" toLane="0"/>

    <connection from="-11311845#0" to="11311845#0" fromLane="0" toLane="0"/>

    <connection from="-11311845#1" to="-11311845#0" fromLane="0" toLane="0"/>
    <connection from="-11311845#1" to="8376182" fromLane="0" toLane="0"/>
    <connection from="-11311845#1" to="11311845#1" fromLane="0" toLane="0"/>

    <connection from="-11311846#0" to="674556625#0" fromLane="0" toLane="0"/>
    <connection from="-11311846#0" to="-11311847" fromLane="0" toLane="0"/>
    <connection from="-11311846#0" to="11311846#0" fromLane="0" toLane="0"/>

    <connection from="-11311846#2" to="-11311846#0" fromLane="0" toLane="0"/>
    <connection from="-11311846#2" to="-8376187#4" fromLane="0" toLane="0"/>
    <connection from="-11311846#2" to="11311846#1" fromLane="0" toLane="0"/>

    <connection from="-11311847" to="-11311845#1" fromLane="0" toLane="0"/>
    <connection from="-11311847" to="-8376184#1" fromLane="0" toLane="0"/>
    <connection from="-11311847" to="11311845#2" fromLane="0" toLane="0"/>

    <connection from="-119404446#1" to="120755697" fromLane="0" toLane="0"/>
    <connection from="-119404446#1" to="119404446#0" fromLane="0" toLane="0"/>

    <connection from="-119438251" to="119438305#2" fromLane="0" toLane="0"/>
    <connection from="-119438251" to="119438251" fromLane="0" toLane="0"/>

    <connection from="-119695444#0" to="-558371517" fromLane="0" toLane="0"/>
    <connection from="-119695444#0" to="8179128#1" fromLane="0" toLane="0"/>
    <connection from="-119695444#0" to="4607834" fromLane="0" toLane="0"/>
    <connection from="-119695444#0" to="35468693" fromLane="0" toLane="0"/>

    <connection from="-119695444#2" to="35468756" fromLane="0" toLane="0"/>
    <connection from="-119695444#2" to="-119695444#0" fromLane="0" toLane="0"/>
    <connection from="-119695444#2" to="-53368567" fromLane="0" toLane="0"/>
    <connection from="-119695444#2" to="119695444#2" fromLane="0" toLane="0"/>

    <connection from="-119695444#3" to="119695446" fromLane="0" toLane="0"/>
    <connection from="-119695444#3" to="-119695444#2" fromLane="0" toLane="0"/>
    <connection from="-119695444#3" to="119695444#3" fromLane="0" toLane="0"/>

    <connection from="-119695444#4" to="-119695444#3" fromLane="0" toLane="0"/>
    <connection from="-119695444#4" to="-53368577" fromLane="0" toLane="0"/>
    <connection from="-119695444#4" to="119695444#4" fromLane="0" toLane="0"/>

    <connection from="-119695444#7" to="-119695444#4" fromLane="0" toLane="0"/>
    <connection from="-119695444#7" to="-53368576" fromLane="0" toLane="0"/>
    <connection from="-119695444#7" to="119695444#5" fromLane="0" toLane="0"/>

    <connection from="-119695446" to="-119695444#2" fromLane="0" toLane="0"/>
    <connection from="-119695446" to="119695444#3" fromLane="0" toLane="0"/>
    <connection from="-119695446" to="119695446" fromLane="0" toLane="0"/>

    <connection from="-120241882" to="201760880#1" fromLane="0" toLane="0"/>
    <connection from="-120241882" to="120241877" fromLane="0" toLane="0"/>

    <connection from="-120324572" to="562623113#0" fromLane="0" toLane="0"/>
    <connection from="-120324572" to="-18942157" fromLane="0" toLane="0"/>
    <connection from="-120324572" to="562623114" fromLane="0" toLane="0"/>
    <connection from="-120324572" to="4390272" fromLane="0" toLane="0"/>

    <connection from="-120340387" to="120340387" fromLane="0" toLane="0"/>

    <connection from="-12542953#0" to="12542953#0" fromLane="0" toLane="0"/>

    <connection from="-12542953#1" to="-12542953#0" fromLane="0" toLane="0"/>
    <connection from="-12542953#1" to="-4471803#7" fromLane="0" toLane="0"/>
    <connection from="-12542953#1" to="12542953#1" fromLane="0" toLane="0"/>

    <connection from="-12542953#3" to="259286470#3" fromLane="0" toLane="0"/>
    <connection from="-12542953#3" to="-12542953#1" fromLane="0" toLane="0"/>
    <connection from="-12542953#3" to="-259286470#2" fromLane="0" toLane="0"/>
    <connection from="-12542953#3" to="12542953#2" fromLane="0" toLane="0"/>

    <connection from="-130628449#2" to="4254652#0" fromLane="0" toLane="0"/>
    <connection from="-130628449#2" to="130628449#0" fromLane="0" toLane="0"/>

    <connection from="-130883593#1" to="-6270628#1" fromLane="0" toLane="0"/>

    <connection from="-130883593#2" to="-130883593#1" fromLane="0" toLane="0"/>
    <connection from="-130883593#2" to="-8391745" fromLane="0" toLane="0"/>
    <connection from="-130883593#2" to="130883593#2" fromLane="0" toLane="1"/>

    <connection from="-130883593#4" to="4333547#0" fromLane="0" toLane="0"/>
    <connection from="-130883593#4" to="-130883593#2" fromLane="0" toLane="0"/>
    <connection from="-130883593#4" to="130883593#3" fromLane="0" toLane="1"/>

    <connection from="-130883593#5" to="-130883593#4" fromLane="0" toLane="0"/>
    <connection from="-130883593#5" to="503334794#0" fromLane="0" toLane="0"/>
    <connection from="-130883593#5" to="130883593#5" fromLane="0" toLane="1"/>

    <connection from="-131929958#0" to="131929958#0" fromLane="0" toLane="0"/>

    <connection from="-131929959#0" to="-388339786#2" fromLane="0" toLane="0"/>
    <connection from="-131929959#0" to="-388339786#2" fromLane="0" toLane="1"/>

    <connection from="-131929959#1" to="10074856" fromLane="0" toLane="0"/>
    <connection from="-131929959#1" to="-131929959#0" fromLane="0" toLane="0"/>
    <connection from="-131929959#1" to="131929959#1" fromLane="0" toLane="0"/>

    <connection from="-131929959#4" to="10074854#0" fromLane="0" toLane="0"/>
    <connection from="-131929959#4" to="-131929959#1" fromLane="0" toLane="0"/>
    <connection from="-131929959#4" to="131929959#2" fromLane="0" toLane="0"/>

    <connection from="-132682380#0" to="-8499843#2" fromLane="0" toLane="0"/>
    <connection from="-132682380#0" to="-5049113#1" fromLane="0" toLane="0"/>
    <connection from="-132682380#0" to="-5049113#1" fromLane="1" toLane="1"/>
    <connection from="-132682380#0" to="-17943474#7" fromLane="1" toLane="0"/>
    <connection from="-132682380#0" to="385446160" fromLane="1" toLane="1"/>

    <connection from="-132682380#1" to="-58714006#1" fromLane="0" toLane="0"/>
    <connection from="-132682380#1" to="-132682380#0" fromLane="0" toLane="0"/>
    <connection from="-132682380#1" to="-132682380#0" fromLane="1" toLane="1"/>
    <connection from="-132682380#1" to="132682380#1" fromLane="1" toLane="1"/>

    <connection from="-132682380#2" to="-132682380#1" fromLane="0" toLane="0"/>
    <connection from="-132682380#2" to="-132682380#1" fromLane="1" toLane="1"/>
    <connection from="-132682380#2" to="-24397110" fromLane="1" toLane="0"/>
    <connection from="-132682380#2" to="132682380#2" fromLane="1" toLane="1"/>

    <connection from="-132682380#4" to="5049112#0" fromLane="0" toLane="0"/>
    <connection from="-132682380#4" to="-132682380#2" fromLane="0" toLane="0"/>
    <connection from="-132682380#4" to="-132682380#2" fromLane="1" toLane="1"/>
    <connection from="-132682380#4" to="-17943473" fromLane="1" toLane="0"/>
    <connection from="-132682380#4" to="132682380#4" fromLane="1" toLane="1"/>

    <connection from="-132682380#5" to="33654925#0" fromLane="0" toLane="0"/>
    <connection from="-132682380#5" to="-132682380#4" fromLane="0" toLane="0"/>
    <connection from="-132682380#5" to="-132682380#4" fromLane="1" toLane="1"/>
    <connection from="-132682380#5" to="132682380#5" fromLane="1" toLane="1"/>

    <connection from="-132682837" to="-71245964#3" fromLane="0" toLane="0"/>
    <connection from="-132682837" to="71245964#4" fromLane="0" toLane="0"/>
    <connection from="-132682837" to="132682837" fromLane="0" toLane="0"/>

    <connection from="-132682839" to="22813757#1" fromLane="0" toLane="0"/>
    <connection from="-132682839" to="-22813757#0" fromLane="0" toLane="0"/>
    <connection from="-132682839" to="132682839" fromLane="0" toLane="0"/>

    <connection from="-132682842" to="8376161#4" fromLane="0" toLane="0"/>
    <connection from="-132682842" to="24397110" fromLane="0" toLane="0"/>
    <connection from="-132682842" to="-8376161#2" fromLane="0" toLane="0"/>
    <connection from="-132682842" to="132682842" fromLane="0" toLane="0"/>

    <connection from="-135556937" to="135556937" fromLane="0" toLane="0"/>

    <connection from="-14001979" to="223186897#0" fromLane="0" toLane="0"/>
    <connection from="-14001979" to="-8376163#2" fromLane="0" toLane="0"/>
    <connection from="-14001979" to="-447749630" fromLane="0" toLane="0"/>
    <connection from="-14001979" to="14001979" fromLane="0" toLane="0"/>

    <connection from="-140463816" to="-4265040#2" fromLane="0" toLane="0"/>
    <connection from="-140463816" to="4265040#3" fromLane="0" toLane="0"/>
    <connection from="-140463816" to="140463816" fromLane="0" toLane="0"/>

    <connection from="-14351420#2" to="14351433" fromLane="0" toLane="0"/>
    <connection from="-14351420#2" to="-14351420#4" fromLane="0" toLane="0"/>
    <connection from="-14351420#2" to="14351420#0" fromLane="0" toLane="0"/>

    <connection from="-14351420#4" to="-313842645" fromLane="0" toLane="0"/>
    <connection from="-14351420#4" to="-14351420#2" fromLane="0" toLane="0"/>
    <connection from="-14351420#4" to="14351420#3" fromLane="0" toLane="0"/>

    <connection from="-14351433" to="-14351420#4" fromLane="0" toLane="0"/>
    <connection from="-14351433" to="14351420#0" fromLane="0" toLane="0"/>
    <connection from="-14351433" to="14351433" fromLane="0" toLane="0"/>

    <connection from="-14351492#1" to="-246803972#2" fromLane="0" toLane="0"/>
    <connection from="-14351492#1" to="246803971#0" fromLane="0" toLane="0"/>
    <connection from="-14351492#1" to="14351492#0" fromLane="0" toLane="0"/>

    <connection from="-14351505#0" to="30085473#0" fromLane="0" toLane="0"/>
    <connection from="-14351505#0" to="-311561497#0" fromLane="0" toLane="0"/>
    <connection from="-14351505#0" to="311561497#1" fromLane="0" toLane="0"/>

    <connection from="-14351505#1" to="8258983" fromLane="0" toLane="0"/>
    <connection from="-14351505#1" to="-14351505#0" fromLane="0" toLane="0"/>
    <connection from="-14351505#1" to="14351505#1" fromLane="0" toLane="0"/>

    <connection from="-14351505#2" to="-27548816" fromLane="0" toLane="0"/>
    <connection from="-14351505#2" to="-14351505#1" fromLane="0" toLane="0"/>
    <connection from="-14351505#2" to="14351505#2" fromLane="0" toLane="0"/>

    <connection from="-14351526#0" to="14351526#0" fromLane="0" toLane="0"/>

    <connection from="-14351526#1" to="176022356#0" fromLane="0" toLane="0"/>
    <connection from="-14351526#1" to="-14351526#0" fromLane="0" toLane="0"/>
    <connection from="-14351526#1" to="14351526#1" fromLane="0" toLane="0"/>

    <connection from="-14351526#3" to="-176022355#1" fromLane="0" toLane="0"/>
    <connection from="-14351526#3" to="-14351526#1" fromLane="0" toLane="0"/>
    <connection from="-14351526#3" to="14351526#3" fromLane="0" toLane="0"/>

    <connection from="-14351598#3" to="534024688#5" fromLane="0" toLane="0"/>
    <connection from="-14351598#3" to="-534024688#4" fromLane="0" toLane="0"/>
    <connection from="-14351598#3" to="14351598#0" fromLane="0" toLane="0"/>

    <connection from="-14351598#5" to="16296979#0" fromLane="0" toLane="0"/>
    <connection from="-14351598#5" to="-14351598#3" fromLane="0" toLane="0"/>
    <connection from="-14351598#5" to="14351598#4" fromLane="0" toLane="0"/>

    <connection from="-14351728" to="175994562#1" fromLane="0" toLane="0"/>
    <connection from="-14351728" to="-175994562#0" fromLane="0" toLane="0"/>
    <connection from="-14351728" to="14351728" fromLane="0" toLane="0"/>

    <connection from="-14618943#1" to="-395164397#1" fromLane="0" toLane="0"/>

    <connection from="-14619731#0" to="10074852#2" fromLane="0" toLane="0"/>
    <connection from="-14619731#0" to="-10074845#1" fromLane="0" toLane="0"/>
    <connection from="-14619731#0" to="-10074852#1" fromLane="0" toLane="0"/>

    <connection from="-14619731#1" to="-14619731#0" fromLane="0" toLane="0"/>
    <connection from="-14619731#1" to="4264831#0" fromLane="0" toLane="0"/>
    <connection from="-14619731#1" to="14619731#1" fromLane="0" toLane="0"/>

    <connection from="-146418648#1" to="146418662" fromLane="0" toLane="0"/>
    <connection from="-146418648#1" to="-32592872#2" fromLane="0" toLane="0"/>
    <connection from="-146418648#1" to="-32592872#2" fromLane="1" toLane="1"/>
    <connection from="-146418648#1" to="-4253685" fromLane="1" toLane="0"/>
    <connection from="-146418648#1" to="146418648#0" fromLane="1" toLane="1"/>

    <connection from="-146418648#2" to="-146418648#1" fromLane="0" toLane="0"/>
    <connection from="-146418648#2" to="-146418648#1" fromLane="1" toLane="1"/>
    <connection from="-146418648#2" to="4253637" fromLane="1" toLane="0"/>
    <connection from="-146418648#2" to="146418648#2" fromLane="1" toLane="1"/>

    <connection from="-146418662" to="-32592872#2" fromLane="0" toLane="0"/>
    <connection from="-146418662" to="-4253685" fromLane="0" toLane="0"/>
    <connection from="-146418662" to="146418648#0" fromLane="0" toLane="1"/>
    <connection from="-146418662" to="146418662" fromLane="0" toLane="0"/>

    <connection from="-146590618" to="-534024692#4" fromLane="0" toLane="0"/>

    <connection from="-146590642#1" to="4352296" fromLane="0" toLane="0"/>
    <connection from="-146590642#1" to="4352297" fromLane="0" toLane="0"/>
    <connection from="-146590642#1" to="-30193920#2" fromLane="0" toLane="0"/>
    <connection from="-146590642#1" to="-30193920#2" fromLane="1" toLane="1"/>
    <connection from="-146590642#1" to="146590642#0" fromLane="1" toLane="1"/>

    <connection from="-146590642#3" to="-146590642#1" fromLane="0" toLane="0"/>
    <connection from="-146590642#3" to="-146590642#1" fromLane="1" toLane="1"/>
    <connection from="-146590642#3" to="146590642#2" fromLane="1" toLane="1"/>

    <connection from="-151469109#1" to="15690838#0" fromLane="0" toLane="0"/>
    <connection from="-151469109#1" to="-15690794#1" fromLane="0" toLane="0"/>
    <connection from="-151469109#1" to="151469109#0" fromLane="0" toLane="0"/>

    <connection from="-151942042#1" to="151942042#0" fromLane="0" toLane="0"/>

    <connection from="-154540870#0" to="154540881#0" fromLane="0" toLane="0"/>
    <connection from="-154540870#0" to="-154540890" fromLane="0" toLane="0"/>
    <connection from="-154540870#0" to="154540870#0" fromLane="0" toLane="0"/>

    <connection from="-154540870#2" to="-154540870#0" fromLane="0" toLane="0"/>
    <connection from="-154540870#2" to="-154540886" fromLane="0" toLane="0"/>
    <connection from="-154540870#2" to="154540870#1" fromLane="0" toLane="0"/>

    <connection from="-154540879#2" to="-154540881#1" fromLane="0" toLane="0"/>
    <connection from="-154540879#2" to="154540881#2" fromLane="0" toLane="0"/>
    <connection from="-154540879#2" to="154540879#0" fromLane="0" toLane="0"/>

    <connection from="-154540879#3" to="-154540879#2" fromLane="0" toLane="0"/>
    <connection from="-154540879#3" to="34083185#0" fromLane="0" toLane="0"/>
    <connection from="-154540879#3" to="154540879#3" fromLane="0" toLane="0"/>

    <connection from="-154540881#1" to="-154540890" fromLane="0" toLane="0"/>
    <connection from="-154540881#1" to="154540870#0" fromLane="0" toLane="0"/>
    <connection from="-154540881#1" to="154540881#0" fromLane="0" toLane="0"/>

    <connection from="-154540881#3" to="154540879#0" fromLane="0" toLane="0"/>
    <connection from="-154540881#3" to="-154540881#1" fromLane="0" toLane="0"/>
    <connection from="-154540881#3" to="154540881#2" fromLane="0" toLane="0"/>

    <connection from="-154540885" to="-250325170#0" fromLane="0" toLane="0"/>
    <connection from="-154540885" to="250325170#2" fromLane="0" toLane="1"/>
    <connection from="-154540885" to="154540885" fromLane="0" toLane="0"/>

    <connection from="-154540886" to="2498997#1" fromLane="0" toLane="0"/>
    <connection from="-154540886" to="-2498997#0" fromLane="0" toLane="0"/>
    <connection from="-154540886" to="154540886" fromLane="0" toLane="0"/>

    <connection from="-154540889#0" to="2483868#1" fromLane="0" toLane="0"/>
    <connection from="-154540889#0" to="-2483868#0" fromLane="0" toLane="0"/>
    <connection from="-154540889#0" to="154540889#0" fromLane="0" toLane="0"/>

    <connection from="-154540889#2" to="2514019#0" fromLane="0" toLane="0"/>
    <connection from="-154540889#2" to="-154540889#0" fromLane="0" toLane="0"/>
    <connection from="-154540889#2" to="154540889#1" fromLane="0" toLane="0"/>

    <connection from="-154540890" to="2498997#2" fromLane="0" toLane="0"/>
    <connection from="-154540890" to="-2498997#1" fromLane="0" toLane="0"/>
    <connection from="-154540890" to="154540890" fromLane="0" toLane="0"/>

    <connection from="-155341957" to="-627472868#1" fromLane="0" toLane="0"/>
    <connection from="-155341957" to="627472868#2" fromLane="0" toLane="1"/>
    <connection from="-155341957" to="155341957" fromLane="0" toLane="0"/>

    <connection from="-155724660" to="141351326#0" fromLane="0" toLane="0"/>

    <connection from="-155894306" to="-3700585#1" fromLane="0" toLane="0"/>
    <connection from="-155894306" to="3700585#2" fromLane="0" toLane="0"/>

    <connection from="-156225747#0" to="192382573" fromLane="0" toLane="0"/>
    <connection from="-156225747#0" to="156225747#0" fromLane="0" toLane="0"/>

    <connection from="-156225747#3" to="-58703796" fromLane="0" toLane="0"/>
    <connection from="-156225747#3" to="-156225747#0" fromLane="0" toLane="0"/>
    <connection from="-156225747#3" to="4333615#0" fromLane="0" toLane="0"/>
    <connection from="-156225747#3" to="156225747#2" fromLane="0" toLane="0"/>

    <connection from="-156225747#4" to="6273672#0" fromLane="0" toLane="0"/>
    <connection from="-156225747#4" to="-156225747#3" fromLane="0" toLane="0"/>
    <connection from="-156225747#4" to="156225747#4" fromLane="0" toLane="0"/>

    <connection from="-156225747#5" to="-6273671#1" fromLane="0" toLane="0"/>
    <connection from="-156225747#5" to="-156225747#4" fromLane="0" toLane="0"/>
    <connection from="-156225747#5" to="156225747#5" fromLane="0" toLane="0"/>

    <connection from="-15690794#1" to="15690794#0" fromLane="0" toLane="0"/>

    <connection from="-15690838#2" to="-15690794#1" fromLane="0" toLane="0"/>
    <connection from="-15690838#2" to="151469109#0" fromLane="0" toLane="0"/>
    <connection from="-15690838#2" to="15690838#0" fromLane="0" toLane="0"/>

    <connection from="-15693515#1" to="648549848#1" fromLane="0" toLane="1"/>
    <connection from="-15693515#1" to="15693515#0" fromLane="0" toLane="0"/>

    <connection from="-15693515#2" to="-15693515#1" fromLane="0" toLane="0"/>
    <connection from="-15693515#2" to="15693581#0" fromLane="0" toLane="0"/>
    <connection from="-15693515#2" to="15693515#2" fromLane="0" toLane="0"/>

    <connection from="-15693581#0" to="15693515#2" fromLane="0" toLane="0"/>
    <connection from="-15693581#0" to="-15693515#1" fromLane="0" toLane="0"/>
    <connection from="-15693581#0" to="15693581#0" fromLane="0" toLane="0"/>

    <connection from="-15693581#2" to="-15693581#0" fromLane="0" toLane="0"/>
    <connection from="-15693581#2" to="36775559" fromLane="0" toLane="0"/>
    <connection from="-15693581#2" to="15693581#1" fromLane="0" toLane="0"/>

    <connection from="-15693581#4" to="-15693581#2" fromLane="0" toLane="0"/>
    <connection from="-15693581#4" to="-36775557#1" fromLane="0" toLane="0"/>
    <connection from="-15693581#4" to="15693581#3" fromLane="0" toLane="0"/>
