<?xml version="1.0" encoding="UTF-8"?>

<!-- generated on Sun Jan 23 14:02:29 2022 by Eclipse SUMO netconvert Version 1.8.0
<configuration xmlns:xsi="http://www.w3.org/2001/XMLSchema-instance" xsi:noNamespaceSchemaLocation="http://sumo.dlr.de/xsd/netconvertConfiguration.xsd">

    <input>
        <sumo-net-file value="islington.net.xml"/>
    </input>

    <output>
        <plain-output-prefix value="temp"/>
    </output>

    <processing>
        <geometry.min-radius.fix.railways value="false"/>
        <geometry.max-grade.fix value="false"/>
        <offset.disable-normalization value="true"/>
        <lefthand value="false"/>
    </processing>

    <junctions>
        <no-turnarounds value="true"/>
        <junctions.corner-detail value="5"/>
        <junctions.limit-turn-speed value="5.5"/>
        <rectangular-lane-cut value="false"/>
    </junctions>

    <pedestrian>
        <walkingareas value="false"/>
    </pedestrian>

    <report>
        <aggregate-warnings value="5"/>
    </report>

</configuration>
-->

<tlLogics version="1.6" xmlns:xsi="http://www.w3.org/2001/XMLSchema-instance" xsi:noNamespaceSchemaLocation="http://sumo.dlr.de/xsd/tllogic_file.xsd">
    <tlLogic id="1339091259" type="actuated" programID="0" offset="0">
        <phase duration="82" state="GG" minDur="5" maxDur="50"/>
        <phase duration="3"  state="yy"/>
        <phase duration="5"  state="rr"/>
    </tlLogic>
    <tlLogic id="220857" type="actuated" programID="0" offset="0">
        <phase duration="42" state="GGggrrrrGGggrrr" minDur="5" maxDur="50"/>
        <phase duration="3"  state="yyyyrrrryyyyrrr"/>
        <phase duration="42" state="rrrrGGggrrrrGgg" minDur="5" maxDur="50"/>
        <phase duration="3"  state="rrrryyyyrrrryyy"/>
    </tlLogic>
    <tlLogic id="220861" type="actuated" programID="0" offset="0">
        <phase duration="42" state="GGggrrGGGg" minDur="5" maxDur="50"/>
        <phase duration="3"  state="yyyyrryyyy"/>
        <phase duration="42" state="rrrGGgGrrr" minDur="5" maxDur="50"/>
        <phase duration="3"  state="rrryyyyrrr"/>
    </tlLogic>
    <tlLogic id="GS_106881" type="actuated" programID="0" offset="0">
        <phase duration="82" state="GGGgGGgg" minDur="5" maxDur="50"/>
        <phase duration="3"  state="yyyyyyyy"/>
        <phase duration="5"  state="rrrrrrrr"/>
    </tlLogic>
    <tlLogic id="GS_107043" type="actuated" programID="0" offset="0">
        <phase duration="27" state="GGggrrrGGGggrrr" minDur="5" maxDur="50"/>
        <phase duration="3"  state="yyyyrrryyyyyrrr"/>
        <phase duration="27" state="GrrrrrrrrrrGGGg" minDur="5" maxDur="50"/>
        <phase duration="3"  state="yrrrrrrrrrryyyy"/>
        <phase duration="27" state="rrrGGGgGrrrrrrr" minDur="5" maxDur="50"/>
        <phase duration="3"  state="rrryyyyyrrrrrrr"/>
    </tlLogic>
    <tlLogic id="GS_107894" type="actuated" programID="0" offset="0">
        <phase duration="42" state="GGggrrrrrGGGggrrrrr" minDur="5" maxDur="50"/>
        <phase duration="3"  state="yyyyrrrrryyyyyrrrrr"/>
        <phase duration="42" state="rrrrGGGggrrrrrGGGgg" minDur="5" maxDur="50"/>
        <phase duration="3"  state="rrrryyyyyrrrrryyyyy"/>
    </tlLogic>
    <tlLogic id="GS_107919" type="actuated" programID="0" offset="0">
        <phase duration="42" state="GggrrrrGGggrrrr" minDur="5" maxDur="50"/>
        <phase duration="3"  state="yyyrrrryyyyrrrr"/>
        <phase duration="42" state="rrrGGggrrrrGGgg" minDur="5" maxDur="50"/>
        <phase duration="3"  state="rrryyyyrrrryyyy"/>
    </tlLogic>
    <tlLogic id="GS_107925" type="actuated" programID="0" offset="0">
        <phase duration="38" state="GGggrrrrGGggrrrr" minDur="5" maxDur="50"/>
        <phase duration="3"  state="yyggrrrryyggrrrr"/>
        <phase duration="6"  state="rrGGrrrrrrGGrrrr" minDur="5" maxDur="50"/>
        <phase duration="3"  state="rryyrrrrrryyrrrr"/>
        <phase duration="37" state="rrrrGGggrrrrGGgg" minDur="5" maxDur="50"/>
        <phase duration="3"  state="rrrryyyyrrrryyyy"/>
    </tlLogic>
    <tlLogic id="GS_108396" type="actuated" programID="0" offset="0">
        <phase duration="42" state="GGggrrrrGGggrrrr" minDur="5" maxDur="50"/>
        <phase duration="3"  state="yyyyrrrryyyyrrrr"/>
        <phase duration="42" state="rrrrGGggrrrrGGgg" minDur="5" maxDur="50"/>
        <phase duration="3"  state="rrrryyyyrrrryyyy"/>
    </tlLogic>
    <tlLogic id="GS_108417" type="actuated" programID="0" offset="0">
        <phase duration="21" state="rrrrrGGgggrrrrrrrrrrGGGgg" minDur="5" maxDur="50"/>
        <phase duration="3"  state="rrrrryygggrrrrrrrrrryyygg"/>
        <phase duration="6"  state="rrrrrrrGGGrrrrrrrrrrrrrGG" minDur="5" maxDur="50"/>
        <phase duration="3"  state="rrrrrrryyyrrrrrrrrrrrrryy"/>
        <phase duration="21" state="GGgggrrrrrrrrrrGGGggrrrrr" minDur="5" maxDur="50"/>
        <phase duration="3"  state="yygggrrrrrrrrrryyyggrrrrr"/>
        <phase duration="6"  state="rrGGGrrrrrrrrrrrrrGGrrrrr" minDur="5" maxDur="50"/>
        <phase duration="3"  state="rryyyrrrrrrrrrrrrryyrrrrr"/>
        <phase duration="21" state="rrrrrrrrrrGGGGgGrrrrrrrrr" minDur="5" maxDur="50"/>
        <phase duration="3"  state="rrrrrrrrrryyyyyyrrrrrrrrr"/>
    </tlLogic>
    <tlLogic id="GS_108503" type="actuated" programID="0" offset="0">
        <phase duration="27" state="rrrGGGGrrr" minDur="5" maxDur="50"/>
        <phase duration="3"  state="rrryyyyrrr"/>
        <phase duration="27" state="GGGrrrGrrr" minDur="5" maxDur="50"/>
        <phase duration="3"  state="yyyrrryrrr"/>
        <phase duration="27" state="rrrrrrrGGG" minDur="5" maxDur="50"/>
        <phase duration="3"  state="rrrrrrryyy"/>
    </tlLogic>
    <tlLogic id="GS_108512" type="actuated" programID="0" offset="0">
        <phase duration="27" state="GGggrrrGGgrrr" minDur="5" maxDur="50"/>
        <phase duration="3"  state="yyyyrrryyyrrr"/>
        <phase duration="27" state="rrrrrrrrrrGGG" minDur="5" maxDur="50"/>
        <phase duration="3"  state="rrrrrrrrrryyy"/>
        <phase duration="27" state="rrrrGGgGrrrrr" minDur="5" maxDur="50"/>
        <phase duration="3"  state="rrrryyyyrrrrr"/>
    </tlLogic>
    <tlLogic id="GS_108540" type="actuated" programID="0" offset="0">
        <phase duration="82" state="GGggGGGg" minDur="5" maxDur="50"/>
        <phase duration="3"  state="yyyyyyyy"/>
        <phase duration="5"  state="rrrrrrrr"/>
    </tlLogic>
    <tlLogic id="GS_108544" type="actuated" programID="0" offset="0">
        <phase duration="42" state="rrrrGGggrrrrGGgg" minDur="5" maxDur="50"/>
        <phase duration="3"  state="rrrryyyyrrrryyyy"/>
        <phase duration="42" state="GGggrrrrGGggrrrr" minDur="5" maxDur="50"/>
        <phase duration="3"  state="yyyyrrrryyyyrrrr"/>
    </tlLogic>
    <tlLogic id="GS_108548" type="actuated" programID="0" offset="0">
        <phase duration="42" state="rrrrGGggrrrrGGgg" minDur="5" maxDur="50"/>
        <phase duration="3"  state="rrrryyyyrrrryyyy"/>
        <phase duration="42" state="GGggrrrrGGggrrrr" minDur="5" maxDur="50"/>
        <phase duration="3"  state="yyyyrrrryyyyrrrr"/>
    </tlLogic>
    <tlLogic id="GS_109360" type="actuated" programID="0" offset="0">
        <phase duration="42" state="GGggrrrrGGggrrrr" minDur="5" maxDur="50"/>
        <phase duration="3"  state="yyyyrrrryyyyrrrr"/>
        <phase duration="42" state="rrrrGGggrrrrGGgg" minDur="5" maxDur="50"/>
        <phase duration="3"  state="rrrryyyyrrrryyyy"/>
    </tlLogic>
    <tlLogic id="GS_109361" type="actuated" programID="0" offset="0">
        <phase duration="42" state="rrrrGGggrrrrGGGgg" minDur="5" maxDur="50"/>
        <phase duration="3"  state="rrrryyyyrrrryyyyy"/>
        <phase duration="42" state="GGggrrrrGGggrrrrr" minDur="5" maxDur="50"/>
        <phase duration="3"  state="yyyyrrrryyyyrrrrr"/>
    </tlLogic>
    <tlLogic id="GS_109365" type="actuated" programID="0" offset="0">
        <phase duration="42" state="GGGggrrrrGGGggrrrr" minDur="5" maxDur="50"/>
        <phase duration="3"  state="yyyyyrrrryyyyyrrrr"/>
        <phase duration="42" state="rrrrrGGggrrrrrGGgg" minDur="5" maxDur="50"/>
        <phase duration="3"  state="rrrrryyyyrrrrryyyy"/>
    </tlLogic>
    <tlLogic id="GS_110159" type="actuated" programID="0" offset="0">
        <phase duration="42" state="GGggrGGGg" minDur="5" maxDur="50"/>
        <phase duration="3"  state="yyyyryyyy"/>
        <phase duration="42" state="rrrGGGrrr" minDur="5" maxDur="50"/>
        <phase duration="3"  state="rrryyyrrr"/>
    </tlLogic>
    <tlLogic id="GS_110285" type="actuated" programID="0" offset="0">
        <phase duration="42" state="rrrrGGggrrrrGGgg" minDur="5" maxDur="50"/>
        <phase duration="3"  state="rrrryyyyrrrryyyy"/>
        <phase duration="42" state="GGggrrrrGGggrrrr" minDur="5" maxDur="50"/>
        <phase duration="3"  state="yyyyrrrryyyyrrrr"/>
    </tlLogic>
    <tlLogic id="GS_168064" type="actuated" programID="0" offset="0">
        <phase duration="78" state="GggGGGg" minDur="5" maxDur="50"/>
        <phase duration="3"  state="yggyyyy"/>
        <phase duration="6"  state="GGGrrrr" minDur="5" maxDur="50"/>
        <phase duration="3"  state="yyyrrrr"/>
    </tlLogic>
    <tlLogic id="GS_168083" type="actuated" programID="0" offset="0">
        <phase duration="42" state="rrrrGGGggrrrrGGGgg" minDur="5" maxDur="50"/>
        <phase duration="3"  state="rrrryyyyyrrrryyyyy"/>
        <phase duration="42" state="GGggrrrrrGGggrrrrr" minDur="5" maxDur="50"/>
        <phase duration="3"  state="yyyyrrrrryyyyrrrrr"/>
    </tlLogic>
    <tlLogic id="GS_168089" type="actuated" programID="0" offset="0">
        <phase duration="42" state="GGggrrrrGGGggrrr" minDur="5" maxDur="50"/>
        <phase duration="3"  state="yyyyrrrryyyyyrrr"/>
        <phase duration="42" state="rrrrGGggrrrrrGgg" minDur="5" maxDur="50"/>
        <phase duration="3"  state="rrrryyyyrrrrryyy"/>
    </tlLogic>
    <tlLogic id="GS_1685760099" type="actuated" programID="0" offset="0">
        <phase duration="42" state="GGGgrrrGGgg" minDur="5" maxDur="50"/>
        <phase duration="3"  state="yyyyrrryyyy"/>
        <phase duration="42" state="rrrrGGGrrrr" minDur="5" maxDur="50"/>
        <phase duration="3"  state="rrrryyyrrrr"/>
    </tlLogic>
    <tlLogic id="GS_1696840414" type="actuated" programID="0" offset="0">
        <phase duration="42" state="GggrrGGg" minDur="5" maxDur="50"/>
        <phase duration="3"  state="yyyrryyy"/>
        <phase duration="42" state="rrGGgGrr" minDur="5" maxDur="50"/>
        <phase duration="3"  state="rryyyyrr"/>
    </tlLogic>
    <tlLogic id="GS_1956955117" type="actuated" programID="0" offset="0">
        <phase duration="42" state="Grr" minDur="5" maxDur="50"/>
        <phase duration="3"  state="yrr"/>
        <phase duration="42" state="rGG" minDur="5" maxDur="50"/>
        <phase duration="3"  state="ryy"/>
    </tlLogic>
    <tlLogic id="GS_197958" type="actuated" programID="0" offset="0">
        <phase duration="42" state="rrrrGGggGGGg" minDur="5" maxDur="50"/>
        <phase duration="3"  state="rrrryyyyyyyy"/>
        <phase duration="42" state="GGGGrrrrrrrr" minDur="5" maxDur="50"/>
        <phase duration="3"  state="yyyyrrrrrrrr"/>
    </tlLogic>
    <tlLogic id="GS_198072" type="actuated" programID="0" offset="0">
        <phase duration="42" state="GGggrrrrGGgg" minDur="5" maxDur="50"/>
        <phase duration="3"  state="yyyyrrrryyyy"/>
        <phase duration="42" state="rrrrGGGgGrrr" minDur="5" maxDur="50"/>
        <phase duration="3"  state="rrrryyyyyrrr"/>
    </tlLogic>
    <tlLogic id="GS_198100" type="actuated" programID="0" offset="0">
        <phase duration="42" state="rrrrGGggrrrrGGgg" minDur="5" maxDur="50"/>
        <phase duration="3"  state="rrrryyyyrrrryyyy"/>
        <phase duration="42" state="GGggrrrrGGggrrrr" minDur="5" maxDur="50"/>
        <phase duration="3"  state="yyyyrrrryyyyrrrr"/>
    </tlLogic>
    <tlLogic id="GS_198137" type="actuated" programID="0" offset="0">
        <phase duration="42" state="GggGGgrrr" minDur="5" maxDur="50"/>
        <phase duration="3"  state="yyyyyyrrr"/>
        <phase duration="42" state="rrGrrrGGG" minDur="5" maxDur="50"/>
        <phase duration="3"  state="rryrrryyy"/>
    </tlLogic>
    <tlLogic id="GS_198376" type="actuated" programID="0" offset="0">
        <phase duration="42" state="GGGggGGGggrrrr" minDur="5" maxDur="50"/>
        <phase duration="3"  state="yyyyyyyyyyrrrr"/>
        <phase duration="42" state="GrrrrrrrrrGGGg" minDur="5" maxDur="50"/>
        <phase duration="3"  state="yrrrrrrrrryyyy"/>
    </tlLogic>
    <tlLogic id="GS_199348504" type="actuated" programID="0" offset="0">
        <phase duration="82" state="GGGgGGgg" minDur="5" maxDur="50"/>
        <phase duration="3"  state="yyyyyyyy"/>
        <phase duration="5"  state="rrrrrrrr"/>
    </tlLogic>
    <tlLogic id="GS_199515" type="actuated" programID="0" offset="0">
        <phase duration="42" state="GggrrrGGg" minDur="5" maxDur="50"/>
        <phase duration="3"  state="yyyrrryyy"/>
        <phase duration="42" state="rrrGGgGrr" minDur="5" maxDur="50"/>
        <phase duration="3"  state="rrryyyyrr"/>
    </tlLogic>
    <tlLogic id="GS_199542" type="actuated" programID="0" offset="0">
        <phase duration="42" state="GGGGrr" minDur="5" maxDur="50"/>
        <phase duration="3"  state="yyyyrr"/>
        <phase duration="42" state="rrrrGG" minDur="5" maxDur="50"/>
        <phase duration="3"  state="rrrryy"/>
    </tlLogic>
    <tlLogic id="GS_2114879337" type="actuated" programID="0" offset="0">
        <phase duration="42" state="GGrr" minDur="5" maxDur="50"/>
        <phase duration="3"  state="yyrr"/>
        <phase duration="42" state="rrGG" minDur="5" maxDur="50"/>
        <phase duration="3"  state="rryy"/>
    </tlLogic>
    <tlLogic id="GS_220862" type="actuated" programID="0" offset="0">
        <phase duration="42" state="GGgrrrGGgg" minDur="5" maxDur="50"/>
        <phase duration="3"  state="yyyrrryyyy"/>
        <phase duration="42" state="rrGGGGrrrr" minDur="5" maxDur="50"/>
        <phase duration="3"  state="rryyyyrrrr"/>
    </tlLogic>
    <tlLogic id="GS_221731" type="actuated" programID="0" offset="0">
        <phase duration="42" state="rrrrGggrrrrGGgg" minDur="5" maxDur="50"/>
        <phase duration="3"  state="rrrryyyrrrryyyy"/>
        <phase duration="42" state="GGggrrrGGggrrrr" minDur="5" maxDur="50"/>
        <phase duration="3"  state="yyyyrrryyyyrrrr"/>
    </tlLogic>
    <tlLogic id="GS_221742" type="actuated" programID="0" offset="0">
        <phase duration="42" state="rrrrGGggrrrrGGgg" minDur="5" maxDur="50"/>
        <phase duration="3"  state="rrrryyyyrrrryyyy"/>
        <phase duration="42" state="GGggrrrrGGggrrrr" minDur="5" maxDur="50"/>
        <phase duration="3"  state="yyyyrrrryyyyrrrr"/>
    </tlLogic>
    <tlLogic id="GS_221768" type="actuated" programID="0" offset="0">
        <phase duration="42" state="GGggrrrrrGGgrrrr" minDur="5" maxDur="50"/>
        <phase duration="3"  state="yyyyrrrrryyyrrrr"/>
        <phase duration="42" state="rrrrGGGggrrrGGgg" minDur="5" maxDur="50"/>
        <phase duration="3"  state="rrrryyyyyrrryyyy"/>
    </tlLogic>
    <tlLogic id="GS_221773" type="actuated" programID="0" offset="0">
        <phase duration="38" state="GGgGggrr" minDur="5" maxDur="50"/>
        <phase duration="3"  state="yyyyggrr"/>
        <phase duration="6"  state="rrrGGGrr" minDur="5" maxDur="50"/>
        <phase duration="3"  state="rrryyyrr"/>
        <phase duration="37" state="GrrrrGGg" minDur="5" maxDur="50"/>
        <phase duration="3"  state="yrrrryyy"/>
    </tlLogic>
    <tlLogic id="GS_221817" type="actuated" programID="0" offset="0">
        <phase duration="38" state="GGGggrrrrrGGgggrrrrr" minDur="5" maxDur="50"/>
        <phase duration="3"  state="yyyggrrrrryygggrrrrr"/>
        <phase duration="6"  state="rrrGGrrrrrrrGGGrrrrr" minDur="5" maxDur="50"/>
        <phase duration="3"  state="rrryyrrrrrrryyyrrrrr"/>
        <phase duration="37" state="rrrrrGGGggrrrrrGGggg" minDur="5" maxDur="50"/>
        <phase duration="3"  state="rrrrryyyyyrrrrryyyyy"/>
    </tlLogic>
    <tlLogic id="GS_237900" type="actuated" programID="0" offset="0">
        <phase duration="38" state="rGGggrGg" minDur="5" maxDur="50"/>
        <phase duration="3"  state="ryyggryy"/>
        <phase duration="6"  state="rGGGGrrr" minDur="5" maxDur="50"/>
        <phase duration="3"  state="ryyyyrrr"/>
        <phase duration="37" state="GrrrGGrG" minDur="5" maxDur="50"/>
        <phase duration="3"  state="yrrryyry"/>
    </tlLogic>
    <tlLogic id="GS_25497323" type="actuated" programID="0" offset="0">
        <phase duration="42" state="Gr" minDur="5" maxDur="50"/>
        <phase duration="3"  state="yr"/>
        <phase duration="42" state="rG" minDur="5" maxDur="50"/>
        <phase duration="3"  state="ry"/>
    </tlLogic>
    <tlLogic id="GS_25878853" type="actuated" programID="0" offset="0">
        <phase duration="42" state="GGggrrrGGGggrrr" minDur="5" maxDur="50"/>
        <phase duration="3"  state="yyyyrrryyyyyrrr"/>
        <phase duration="42" state="rrrrGGgrrrrGGgg" minDur="5" maxDur="50"/>
        <phase duration="3"  state="rrrryyyrrrryyyy"/>
    </tlLogic>
    <tlLogic id="GS_26064875" type="actuated" programID="0" offset="0">
        <phase duration="42" state="GGgrrrGGg" minDur="5" maxDur="50"/>
        <phase duration="3"  state="yyyrrryyy"/>
        <phase duration="42" state="rrrGGGrrr" minDur="5" maxDur="50"/>
        <phase duration="3"  state="rrryyyrrr"/>
    </tlLogic>
    <tlLogic id="GS_26814978" type="actuated" programID="0" offset="0">
        <phase duration="42" state="GGGrrr" minDur="5" maxDur="50"/>
        <phase duration="3"  state="yyyrrr"/>
        <phase duration="42" state="rrrGGG" minDur="5" maxDur="50"/>
        <phase duration="3"  state="rrryyy"/>
    </tlLogic>
    <tlLogic id="GS_283326645" type="actuated" programID="0" offset="0">
        <phase duration="42" state="GGggrrrrGGgg" minDur="5" maxDur="50"/>
        <phase duration="3"  state="yyyyrrrryyyy"/>
        <phase duration="42" state="rrrrGGGgGrrr" minDur="5" maxDur="50"/>
        <phase duration="3"  state="rrrryyyyyrrr"/>
    </tlLogic>
    <tlLogic id="GS_283362582" type="actuated" programID="0" offset="0">
        <phase duration="42" state="GGrr" minDur="5" maxDur="50"/>
        <phase duration="3"  state="yyrr"/>
        <phase duration="42" state="rrGG" minDur="5" maxDur="50"/>
        <phase duration="3"  state="rryy"/>
    </tlLogic>
    <tlLogic id="GS_339394888" type="actuated" programID="0" offset="0">
        <phase duration="42" state="rGGg" minDur="5" maxDur="50"/>
        <phase duration="3"  state="ryyy"/>
        <phase duration="42" state="GrGr" minDur="5" maxDur="50"/>
        <phase duration="3"  state="yryr"/>
    </tlLogic>
    <tlLogic id="GS_348714153" type="actuated" programID="0" offset="0">
        <phase duration="27" state="rrrrrG" minDur="5" maxDur="50"/>
        <phase duration="3"  state="rrrrry"/>
        <phase duration="27" state="GGrrGr" minDur="5" maxDur="50"/>
        <phase duration="3"  state="yyrryr"/>
        <phase duration="27" state="rrGGGr" minDur="5" maxDur="50"/>
        <phase duration="3"  state="rryyyr"/>
    </tlLogic>
    <tlLogic id="GS_459236583" type="actuated" programID="0" offset="0">
        <phase duration="42" state="GG" minDur="5" maxDur="50"/>
        <phase duration="3"  state="yy"/>
        <phase duration="42" state="GG" minDur="5" maxDur="50"/>
        <phase duration="3"  state="yy"/>
    </tlLogic>
    <tlLogic id="GS_6384726979" type="actuated" programID="0" offset="0">
        <phase duration="42" state="GggrrrGGg" minDur="5" maxDur="50"/>
        <phase duration="3"  state="yyyrrryyy"/>
        <phase duration="42" state="rrrGGgGrr" minDur="5" maxDur="50"/>
        <phase duration="3"  state="rrryyyyrr"/>
    </tlLogic>
    <tlLogic id="GS_6810410295" type="actuated" programID="0" offset="0">
        <phase duration="42" state="rrrrGGggrrrrGGgg" minDur="5" maxDur="50"/>
        <phase duration="3"  state="rrrryyyyrrrryyyy"/>
        <phase duration="42" state="GGggrrrrGGggrrrr" minDur="5" maxDur="50"/>
        <phase duration="3"  state="yyyyrrrryyyyrrrr"/>
    </tlLogic>
    <tlLogic id="GS_684302833" type="actuated" programID="0" offset="0">
        <phase duration="42" state="GggrrrGGg" minDur="5" maxDur="50"/>
        <phase duration="3"  state="yyyrrryyy"/>
        <phase duration="42" state="rrrGGgGrr" minDur="5" maxDur="50"/>
        <phase duration="3"  state="rrryyyyrr"/>
    </tlLogic>
    <tlLogic id="GS_7940312751" type="actuated" programID="0" offset="0">
        <phase duration="42" state="rrrrGGggrrrrGGGgg" minDur="5" maxDur="50"/>
        <phase duration="3"  state="rrrryyyyrrrryyyyy"/>
        <phase duration="42" state="GGggrrrrGGggrrrrr" minDur="5" maxDur="50"/>
        <phase duration="3"  state="yyyyrrrryyyyrrrrr"/>
    </tlLogic>
    <tlLogic id="GS_8244036575" type="actuated" programID="0" offset="0">
        <phase duration="42" state="GGGrrr" minDur="5" maxDur="50"/>
        <phase duration="3"  state="yyyrrr"/>
        <phase duration="42" state="rrrGGG" minDur="5" maxDur="50"/>
        <phase duration="3"  state="rrryyy"/>
    </tlLogic>
    <tlLogic id="GS_cluster_107900_5425192220" type="actuated" programID="0" offset="0">
        <phase duration="82" state="GGGggGGGgg" minDur="5" maxDur="50"/>
        <phase duration="3"  state="yyyyyyyyyy"/>
        <phase duration="5"  state="rrrrrrrrrr"/>
    </tlLogic>
    <tlLogic id="GS_cluster_10795942_198401" type="actuated" programID="0" offset="0">
        <phase duration="42" state="GGrrGG" minDur="5" maxDur="50"/>
        <phase duration="3"  state="yyrryy"/>
        <phase duration="42" state="rrGGrr" minDur="5" maxDur="50"/>
        <phase duration="3"  state="rryyrr"/>
    </tlLogic>
    <tlLogic id="GS_cluster_179012600_195148" type="actuated" programID="0" offset="0">
        <phase duration="38" state="gGGrrrrGGG" minDur="5" maxDur="50"/>
        <phase duration="3"  state="gyyrrrryyy"/>
        <phase duration="6"  state="GGGrrrrrrr" minDur="5" maxDur="50"/>
        <phase duration="3"  state="yyyrrrrrrr"/>
        <phase duration="37" state="rrrGGGGrrr" minDur="5" maxDur="50"/>
        <phase duration="3"  state="rrryyyyrrr"/>
    </tlLogic>
    <tlLogic id="GS_cluster_1835579475_199550" type="actuated" programID="0" offset="0">
        <phase duration="38" state="gGGgrrrrrGGg" minDur="5" maxDur="50"/>
        <phase duration="3"  state="gyyyrrrrryyg"/>
        <phase duration="6"  state="Grrrrrrrrrrg" minDur="5" maxDur="50"/>
        <phase duration="3"  state="yrrrrrrrrrry"/>
        <phase duration="37" state="rrrrGGGGGrrr" minDur="5" maxDur="50"/>
        <phase duration="3"  state="rrrryyyyyrrr"/>
    </tlLogic>
    <tlLogic id="GS_cluster_198063_2117990323_7041282158" type="actuated" programID="0" offset="0">
        <phase duration="27" state="rrrrGGGGrrrrrrrrr" minDur="5" maxDur="50"/>
        <phase duration="3"  state="rrrryyyyrrrrrrrrr"/>
        <phase duration="27" state="GGggrrrrGGggrrrrr" minDur="5" maxDur="50"/>
        <phase duration="3"  state="yyyyrrrryyyyrrrrr"/>
        <phase duration="27" state="GrrrrrrrrrrrGgGGg" minDur="5" maxDur="50"/>
        <phase duration="3"  state="yrrrrrrrrrrryyyyy"/>
    </tlLogic>
    <tlLogic id="GS_cluster_198139_2449187620_4858754166_4858754169_4858754170" type="actuated" programID="0" offset="0">
        <phase duration="42" state="GGrrr" minDur="5" maxDur="50"/>
        <phase duration="3"  state="yyrrr"/>
        <phase duration="42" state="rrGGG" minDur="5" maxDur="50"/>
        <phase duration="3"  state="rryyy"/>
    </tlLogic>
    <tlLogic id="GS_cluster_199545_2204174075" type="actuated" programID="0" offset="0">
        <phase duration="27" state="rrrrrGGGGrrrr" minDur="5" maxDur="50"/>
        <phase duration="3"  state="rrrrryyyyrrrr"/>
        <phase duration="27" state="GGGGGrrrrrrrr" minDur="5" maxDur="50"/>
        <phase duration="3"  state="yyyyyrrrrrrrr"/>
        <phase duration="27" state="rrrrrrrrrGGGG" minDur="5" maxDur="50"/>
        <phase duration="3"  state="rrrrrrrrryyyy"/>
    </tlLogic>
    <tlLogic id="GS_cluster_220847_7711687429" type="actuated" programID="0" offset="0">
        <phase duration="42" state="rrrrGGGggrrrrGGGgg" minDur="5" maxDur="50"/>
        <phase duration="3"  state="rrrryyyyyrrrryyyyy"/>
        <phase duration="42" state="GGggrrrrrGGggrrrrr" minDur="5" maxDur="50"/>
        <phase duration="3"  state="yyyyrrrrryyyyrrrrr"/>
    </tlLogic>
    <tlLogic id="GS_cluster_2227034_584412582" type="actuated" programID="0" offset="0">
        <phase duration="33" state="rrrrGGggrrrrGGgg" minDur="5" maxDur="50"/>
        <phase duration="3"  state="rrrryyggrrrryygg"/>
        <phase duration="6"  state="rrrrrrGGrrrrrrGG" minDur="5" maxDur="50"/>
        <phase duration="3"  state="rrrrrryyrrrrrryy"/>
        <phase duration="33" state="GGggrrrrGGggrrrr" minDur="5" maxDur="50"/>
        <phase duration="3"  state="yyggrrrryyggrrrr"/>
        <phase duration="6"  state="rrGGrrrrrrGGrrrr" minDur="5" maxDur="50"/>
        <phase duration="3"  state="rryyrrrrrryyrrrr"/>
    </tlLogic>
    <tlLogic id="cluster_10512503_4658179567_4658179568_5933049455" type="actuated" programID="0" offset="0">
        <phase duration="42" state="GGgrrrGGgg" minDur="5" maxDur="50"/>
        <phase duration="3"  state="yyyrrryyyy"/>
        <phase duration="42" state="rrrGGGrrrr" minDur="5" maxDur="50"/>
        <phase duration="3"  state="rrryyyrrrr"/>
    </tlLogic>
    <tlLogic id="cluster_199433_847744815" type="actuated" programID="0" offset="0">
        <phase duration="42" state="rrrrGGgggrrrrGGGGg" minDur="5" maxDur="50"/>
        <phase duration="3"  state="rrrryyyyyrrrryyyyy"/>
        <phase duration="42" state="GGggrrrrrGGggrrrrr" minDur="5" maxDur="50"/>
        <phase duration="3"  state="yyyyrrrrryyyyrrrrr"/>
    </tlLogic>
    <tlLogic id="joinedS_0" type="actuated" programID="0" offset="0">
        <phase duration="27" state="GGggrrrrGGGgGGGggrrrrGGGggrrrr" minDur="5" maxDur="50"/>
        <phase duration="3"  state="yyyyrrrryyyyyyyyyrrrryyyyyrrrr"/>
        <phase duration="27" state="GGGGrrrrrrrrrrrrrggggGGGGgGggg" minDur="5" maxDur="50"/>
        <phase duration="3"  state="yyyyrrrrrrrrrrrrryyyyyyyyyyyyy"/>
        <phase duration="27" state="GGGgGGggrrrrrrrrrrrrrGGGGGrrrr" minDur="5" maxDur="50"/>
        <phase duration="3"  state="yyyyyyyyrrrrrrrrrrrrryyyyyrrrr"/>
    </tlLogic>
    <tlLogic id="joinedS_1" type="actuated" programID="0" offset="0">
        <phase duration="42" state="rrGGGG" minDur="5" maxDur="50"/>
        <phase duration="3"  state="rryyyy"/>
        <phase duration="42" state="GGrrGG" minDur="5" maxDur="50"/>
        <phase duration="3"  state="yyrryy"/>
    </tlLogic>
    <tlLogic id="joinedS_3" type="actuated" programID="0" offset="0">
        <phase duration="27" state="rrrrrrrrrGGGGGrrrr" minDur="5" maxDur="50"/>
        <phase duration="3"  state="rrrrrrrrryyyyyrrrr"/>
        <phase duration="27" state="rrrrrGGggrrrrrGGgg" minDur="5" maxDur="50"/>
        <phase duration="3"  state="rrrrryyyyrrrrryyyy"/>
        <phase duration="27" state="GGGGgGrrrrrrrrrrrr" minDur="5" maxDur="50"/>
        <phase duration="3"  state="yyyyyyrrrrrrrrrrrr"/>
    </tlLogic>

    <connection from="-1000397302#2" to="-51238445#13" fromLane="0" toLane="0" tl="220861" linkIndex="0"/>
    <connection from="-1000397302#2" to="-51238445#13" fromLane="1" toLane="1" tl="220861" linkIndex="1"/>
    <connection from="-1000397302#2" to="23046215#0" fromLane="1" toLane="0" tl="220861" linkIndex="2"/>
    <connection from="-1000397302#2" to="1000397302#0" fromLane="1" toLane="1" tl="220861" linkIndex="3"/>
    <connection from="-160532844#6" to="-234295188#3" fromLane="0" toLane="0" tl="GS_168089" linkIndex="0"/>
    <connection from="-160532844#6" to="-234295188#3" fromLane="1" toLane="1" tl="GS_168089" linkIndex="1"/>
    <connection from="-160532844#6" to="4390227#0" fromLane="1" toLane="0" tl="GS_168089" linkIndex="2"/>
    <connection from="-160532844#6" to="160532844#0" fromLane="1" toLane="1" tl="GS_168089" linkIndex="3"/>
    <connection from="-166482549#2" to="157467038#0" fromLane="0" toLane="0" tl="GS_108512" linkIndex="7"/>
    <connection from="-166482549#2" to="207807330#0" fromLane="0" toLane="0" tl="GS_108512" linkIndex="8"/>
    <connection from="-166482549#2" to="166482549#0" fromLane="1" toLane="1" tl="GS_108512" linkIndex="9"/>
    <connection from="-166585298#4" to="-6266180#6" fromLane="0" toLane="0" tl="GS_109360" linkIndex="12"/>
    <connection from="-166585298#4" to="-4248704#15" fromLane="0" toLane="0" tl="GS_109360" linkIndex="13"/>
    <connection from="-166585298#4" to="6266181#0" fromLane="0" toLane="0" tl="GS_109360" linkIndex="14"/>
    <connection from="-166585298#4" to="166585298#0" fromLane="0" toLane="0" tl="GS_109360" linkIndex="15"/>
    <connection from="-181799764#2" to="231813686#0" fromLane="0" toLane="0" tl="GS_221731" linkIndex="0"/>
    <connection from="-181799764#2" to="-598147041#4" fromLane="0" toLane="0" tl="GS_221731" linkIndex="1"/>
    <connection from="-181799764#2" to="-202053019#8" fromLane="0" toLane="0" tl="GS_221731" linkIndex="2"/>
    <connection from="-181799764#2" to="181799764#0" fromLane="0" toLane="0" tl="GS_221731" linkIndex="3"/>
    <connection from="-188128548#4" to="47048136#0" fromLane="0" toLane="0" tl="GS_107925" linkIndex="8"/>
    <connection from="-188128548#4" to="-238913756#12" fromLane="0" toLane="0" tl="GS_107925" linkIndex="9"/>
    <connection from="-188128548#4" to="-2466941#14" fromLane="1" toLane="0" tl="GS_107925" linkIndex="10"/>
    <connection from="-188128548#4" to="188128548#0" fromLane="1" toLane="1" tl="GS_107925" linkIndex="11"/>