<?xml version="1.0" encoding="UTF-8"?>

<!-- generated on Sun Jan 23 14:02:29 2022 by Eclipse SUMO netconvert Version 1.8.0
<configuration xmlns:xsi="http://www.w3.org/2001/XMLSchema-instance" xsi:noNamespaceSchemaLocation="http://sumo.dlr.de/xsd/netconvertConfiguration.xsd">

    <input>
        <sumo-net-file value="islington.net.xml"/>
    </input>

    <output>
        <plain-output-prefix value="temp"/>
    </output>

    <processing>
        <geometry.min-radius.fix.railways value="false"/>
        <geometry.max-grade.fix value="false"/>
        <offset.disable-normalization value="true"/>
        <lefthand value="false"/>
    </processing>

    <junctions>
        <no-turnarounds value="true"/>
        <junctions.corner-detail value="5"/>
        <junctions.limit-turn-speed value="5.5"/>
        <rectangular-lane-cut value="false"/>
    </junctions>

    <pedestrian>
        <walkingareas value="false"/>
    </pedestrian>

    <report>
        <aggregate-warnings value="5"/>
    </report>

</configuration>
-->

<nodes version="1.6" xmlns:xsi="http://www.w3.org/2001/XMLSchema-instance" xsi:noNamespaceSchemaLocation="http://sumo.dlr.de/xsd/nodes_file.xsd">
    <location netOffset="-697936.26,-5711463.97" convBoundary="0.00,0.00,4825.69,6518.32" origBoundary="-0.190143,51.510845,-0.044637,51.589114" projParameter="+proj=utm +zone=30 +ellps=WGS84 +datum=WGS84 +units=m +no_defs"/>

    <node id="100613283" x="1638.56" y="5631.45" type="right_before_left"/>
    <node id="1019727177" x="1691.36" y="3180.57" type="priority"/>
    <node id="10512858" x="3123.75" y="1166.05" type="priority"/>
    <node id="10514552" x="2797.74" y="2329.60" type="priority"/>
    <node id="10514553" x="2797.09" y="2415.59" type="right_before_left"/>
    <node id="10529805" x="3660.47" y="2201.23" type="right_before_left"/>
    <node id="10529806" x="3740.07" y="2197.70" type="priority"/>
    <node id="10529809" x="3669.48" y="2666.68" type="priority"/>
    <node id="10539789" x="4337.44" y="3175.40" type="priority"/>
    <node id="10540497" x="3373.65" y="2934.27" type="right_before_left"/>
    <node id="10540498" x="3365.12" y="2960.95" type="right_before_left"/>
    <node id="10587697" x="2979.25" y="2450.32" type="priority"/>
    <node id="10587698" x="3052.17" y="2330.52" type="priority"/>
    <node id="10605245" x="3178.27" y="2839.35" type="right_before_left"/>
    <node id="10605466" x="3143.23" y="3021.76" type="right_before_left"/>
    <node id="10605468" x="3054.60" y="2390.59" type="priority"/>
    <node id="10606315" x="3270.13" y="3172.20" type="priority"/>
    <node id="10607626" x="3048.31" y="86.84" type="dead_end"/>
    <node id="10611166" x="2566.45" y="1464.55" type="right_before_left"/>
    <node id="10611167" x="2341.92" y="1421.25" type="priority"/>
    <node id="10621314" x="3076.52" y="1962.03" type="priority"/>
    <node id="10621319" x="3080.30" y="2023.07" type="priority"/>
    <node id="10622524" x="2729.30" y="2546.61" type="priority"/>
    <node id="10622525" x="1994.83" y="2446.41" type="priority"/>
    <node id="10672031" x="2277.19" y="1526.79" type="right_before_left"/>
    <node id="10672032" x="2304.21" y="1414.74" type="priority"/>
    <node id="10676798" x="4317.46" y="451.01" type="priority"/>
    <node id="10676799" x="4276.52" y="251.05" type="dead_end"/>
    <node id="106881" x="3996.63" y="1035.77" type="traffic_light" tl="GS_106881"/>
    <node id="107030" x="3761.93" y="2768.03" type="priority"/>
    <node id="107031" x="3808.08" y="2824.43" type="priority"/>
    <node id="107032" x="3705.03" y="2907.47" type="right_before_left"/>
    <node id="10703283" x="2313.97" y="1196.84" type="priority"/>
    <node id="10703293" x="2241.45" y="746.97" type="priority"/>
    <node id="10703451" x="2305.88" y="860.08" type="right_before_left"/>
    <node id="107037" x="3944.26" y="2035.75" type="priority"/>
    <node id="10703711" x="1823.21" y="1338.90" type="priority"/>
    <node id="107039" x="4206.50" y="2639.93" type="priority"/>
    <node id="107043" x="3451.12" y="2481.17" type="traffic_light" tl="GS_107043"/>
    <node id="107044" x="3345.22" y="2369.65" type="priority"/>
    <node id="107056" x="3480.81" y="2058.60" type="right_before_left"/>
    <node id="107059" x="3648.86" y="2086.39" type="right_before_left"/>
    <node id="107060" x="3699.48" y="2018.51" type="right_before_left"/>
    <node id="107070" x="3258.10" y="2065.17" type="right_before_left"/>
    <node id="107073" x="3272.03" y="2290.56" type="right_before_left"/>
    <node id="107081" x="2519.09" y="2414.12" type="priority"/>
    <node id="107089" x="2986.68" y="2142.03" type="right_before_left"/>
    <node id="107090" x="3124.50" y="2081.58" type="priority"/>
    <node id="107093" x="2608.37" y="2061.85" type="right_before_left"/>
    <node id="107094" x="2494.92" y="2085.84" type="right_before_left"/>
    <node id="107099" x="2609.76" y="2111.98" type="right_before_left"/>
    <node id="107100" x="2452.92" y="2223.28" type="priority"/>
    <node id="107103" x="2221.84" y="2218.03" type="priority"/>
    <node id="107106" x="3046.50" y="1990.19" type="priority"/>
    <node id="107108" x="3280.63" y="1819.75" type="priority"/>
    <node id="10714063" x="2100.28" y="2587.37" type="priority"/>
    <node id="107890" x="2112.06" y="1207.26" type="priority"/>
    <node id="107894" x="2493.97" y="708.84" type="traffic_light" tl="GS_107894"/>
    <node id="107899" x="2575.96" y="615.41" type="priority"/>
    <node id="107903" x="3358.73" y="1275.65" type="priority"/>
    <node id="107907" x="2815.21" y="1470.50" type="right_before_left"/>
    <node id="107912" x="2729.64" y="1674.76" type="right_before_left"/>
    <node id="107917" x="2527.22" y="1872.24" type="priority"/>
    <node id="107919" x="2416.03" y="1913.89" type="traffic_light" tl="GS_107919"/>
    <node id="107925" x="2031.30" y="2014.64" type="traffic_light" tl="GS_107925"/>
    <node id="107930" x="2119.65" y="2215.04" type="right_before_left"/>
    <node id="107931" x="2016.51" y="2212.44" type="priority"/>
    <node id="107936" x="2055.67" y="2455.57" type="priority"/>
    <node id="107937" x="2152.13" y="2454.83" type="priority"/>
    <node id="107939" x="2103.96" y="2518.51" type="right_before_left"/>
    <node id="107941" x="2073.56" y="2646.21" type="priority"/>
    <node id="107944" x="2128.03" y="2948.82" type="right_before_left"/>
    <node id="107945" x="2291.90" y="3041.76" type="priority"/>
    <node id="107947" x="2362.06" y="2925.67" type="priority"/>
    <node id="107949" x="2427.12" y="2797.94" type="priority"/>
    <node id="10794937" x="2561.64" y="1775.71" type="priority"/>
    <node id="107951" x="2459.94" y="2618.40" type="priority"/>
    <node id="107953" x="2501.18" y="2488.34" type="priority"/>
    <node id="107954" x="2232.26" y="3116.43" type="priority"/>
    <node id="107956" x="2522.07" y="3133.72" type="priority"/>
    <node id="10795686" x="2844.54" y="1706.81" type="right_before_left"/>
    <node id="107959" x="2319.70" y="3182.70" type="right_before_left"/>
    <node id="10795944" x="2892.76" y="1851.60" type="priority"/>
    <node id="107973" x="1756.02" y="1418.41" type="priority"/>
    <node id="107974" x="1751.01" y="1326.10" type="priority"/>
    <node id="107975" x="1642.31" y="1600.84" type="priority"/>
    <node id="108396" x="3098.56" y="452.29" type="traffic_light" tl="GS_108396"/>
    <node id="108406" x="3276.55" y="107.98" type="dead_end"/>
    <node id="108409" x="3429.84" y="360.65" type="priority"/>
    <node id="108412" x="3568.67" y="559.14" type="priority"/>
    <node id="108413" x="3691.81" y="617.60" type="right_before_left"/>
    <node id="108415" x="4032.07" y="719.83" type="priority"/>
    <node id="108417" x="3341.00" y="548.80" type="traffic_light" tl="GS_108417"/>
    <node id="108468" x="3686.27" y="1155.72" type="priority"/>
    <node id="108469" x="3533.70" y="1210.52" type="priority"/>
    <node id="108483" x="3341.88" y="1726.97" type="priority"/>
    <node id="108492" x="2799.43" y="2242.38" type="right_before_left"/>
    <node id="108494" x="2764.87" y="2108.54" type="priority"/>
    <node id="108496" x="2803.67" y="2110.20" type="priority"/>
    <node id="108497" x="2164.22" y="1847.52" type="right_before_left"/>
    <node id="108498" x="2241.91" y="1837.49" type="right_before_left"/>
    <node id="108499" x="2281.56" y="1915.94" type="right_before_left"/>
    <node id="108503" x="2223.88" y="1402.12" type="traffic_light" tl="GS_108503"/>
    <node id="108507" x="2009.38" y="1496.89" type="right_before_left"/>
    <node id="108508" x="1988.31" y="1620.38" type="priority"/>
    <node id="108510" x="2113.44" y="2008.49" type="priority"/>
    <node id="108511" x="2217.58" y="2000.60" type="priority"/>
    <node id="108512" x="2391.22" y="1698.81" type="traffic_light" tl="GS_108512"/>
    <node id="108518" x="3105.56" y="1714.95" type="right_before_left"/>
    <node id="108530" x="3650.13" y="1832.67" type="priority"/>
    <node id="108532" x="3658.22" y="1984.87" type="right_before_left"/>
    <node id="108533" x="3605.48" y="2052.31" type="right_before_left"/>
    <node id="108540" x="2805.58" y="1335.58" type="traffic_light" tl="GS_108540"/>
    <node id="108541" x="2872.69" y="1221.13" type="priority"/>
    <node id="108543" x="3019.81" y="1076.73" type="priority"/>
    <node id="108544" x="3144.68" y="1120.34" type="traffic_light" tl="GS_108544"/>
    <node id="108548" x="2947.24" y="812.41" type="traffic_light" tl="GS_108548"/>
    <node id="108549" x="2944.85" y="778.58" type="priority"/>
    <node id="10855051" x="3185.93" y="1585.67" type="priority"/>
    <node id="108553" x="3124.46" y="133.27" type="priority"/>
    <node id="108561" x="3930.78" y="2241.72" type="right_before_left"/>
    <node id="108562" x="3957.21" y="2385.81" type="right_before_left"/>
    <node id="10864400" x="3002.13" y="1686.84" type="right_before_left"/>
    <node id="10864401" x="3231.87" y="1853.79" type="priority"/>
    <node id="10864402" x="3386.56" y="1657.48" type="priority"/>
    <node id="10864404" x="3156.44" y="1700.85" type="right_before_left"/>
    <node id="10867404" x="3384.70" y="1233.73" type="priority"/>
    <node id="10871862" x="4487.49" y="3377.13" type="priority"/>
    <node id="10871863" x="4521.01" y="3414.21" type="right_before_left"/>
    <node id="10871864" x="4217.72" y="3401.66" type="right_before_left"/>
    <node id="108928" x="3149.56" y="2116.49" type="priority"/>
    <node id="108929" x="3204.03" y="2193.45" type="priority"/>
    <node id="108933" x="2761.52" y="2241.54" type="right_before_left"/>
    <node id="108947" x="2689.65" y="1914.16" type="priority"/>
    <node id="10928096" x="2964.91" y="1651.88" type="right_before_left"/>
    <node id="10928486" x="3226.43" y="1321.52" type="priority"/>
    <node id="10928984" x="3278.72" y="1304.71" type="priority"/>
    <node id="109352" x="2235.46" y="904.85" type="priority"/>
    <node id="109354" x="2536.02" y="1040.58" type="right_before_left"/>
    <node id="109359" x="2329.64" y="850.12" type="priority"/>
    <node id="109360" x="3443.71" y="970.25" type="traffic_light" tl="GS_109360"/>
    <node id="109361" x="3387.58" y="1264.62" type="traffic_light" tl="GS_109361"/>
    <node id="109363" x="3632.02" y="886.33" type="priority"/>
    <node id="109364" x="3497.59" y="743.06" type="right_before_left"/>
    <node id="109365" x="3532.91" y="662.59" type="traffic_light" tl="GS_109365"/>
    <node id="109398" x="3656.74" y="811.37" type="right_before_left"/>
    <node id="109418" x="4194.63" y="582.36" type="right_before_left"/>
    <node id="109811" x="2515.08" y="506.65" type="priority"/>
    <node id="109835" x="1649.07" y="1318.29" type="right_before_left"/>
    <node id="109942" x="3036.05" y="611.77" type="right_before_left"/>
    <node id="109943" x="2874.18" y="499.25" type="priority"/>
    <node id="109944" x="3230.52" y="190.22" type="right_before_left"/>
    <node id="109953" x="3369.64" y="339.71" type="priority"/>
    <node id="109961" x="2223.72" y="2364.41" type="right_before_left"/>
    <node id="109963" x="2506.37" y="2350.12" type="right_before_left"/>
    <node id="109965" x="1643.37" y="1552.55" type="priority"/>
    <node id="11005812" x="3309.97" y="1460.98" type="priority"/>
    <node id="110137" x="3482.01" y="635.08" type="priority"/>
    <node id="110141" x="3866.76" y="299.58" type="right_before_left"/>
    <node id="110146" x="4111.89" y="128.14" type="traffic_light" tl="joinedS_3"/>
    <node id="110148" x="4144.92" y="387.59" type="right_before_left"/>
    <node id="110150" x="4119.63" y="571.67" type="right_before_left"/>
    <node id="110152" x="4323.71" y="593.62" type="dead_end"/>
    <node id="110159" x="4016.79" y="821.22" type="traffic_light" tl="GS_110159"/>
    <node id="110284" x="3068.84" y="846.47" type="priority"/>
    <node id="110285" x="3217.18" y="900.49" type="traffic_light" tl="GS_110285"/>
    <node id="110286" x="3380.16" y="954.64" type="priority"/>
    <node id="110287" x="2594.98" y="476.48" type="priority"/>
    <node id="11143781" x="2869.50" y="2337.06" type="right_before_left"/>
    <node id="11147280" x="2309.42" y="1971.37" type="priority"/>
    <node id="11312049" x="2578.96" y="2085.76" type="right_before_left"/>
    <node id="11312052" x="2636.92" y="2087.46" type="right_before_left"/>
    <node id="11312055" x="2579.32" y="2424.65" type="right_before_left"/>
    <node id="11312056" x="2591.58" y="2364.68" type="right_before_left"/>
    <node id="114247692" x="2093.62" y="5472.96" type="right_before_left"/>
    <node id="114247694" x="2047.60" y="5422.43" type="right_before_left"/>
    <node id="114247699" x="2118.19" y="5358.52" type="right_before_left"/>
    <node id="114247738" x="1569.76" y="5731.40" type="priority"/>
    <node id="114308121" x="1674.41" y="4840.10" type="priority"/>
    <node id="11440353" x="2947.83" y="2916.34" type="right_before_left"/>
    <node id="11440354" x="2694.16" y="2105.02" type="priority"/>
    <node id="1145205222" x="2992.15" y="488.30" type="priority"/>
    <node id="1145242093" x="2953.83" y="1098.59" type="priority"/>
    <node id="1145288871" x="2759.53" y="1170.35" type="priority"/>
    <node id="1145919166" x="2759.85" y="1322.19" type="priority"/>
    <node id="1149458661" x="2687.30" y="891.63" type="priority"/>
    <node id="1149486488" x="2888.41" y="795.45" type="right_before_left"/>
    <node id="1149518324" x="1215.16" y="5385.78" type="priority"/>
    <node id="1149900650" x="605.36" y="5416.27" type="priority"/>
    <node id="1157966705" x="2563.78" y="673.99" type="priority"/>
    <node id="1158176375" x="2659.80" y="531.09" type="priority"/>
    <node id="1158176377" x="2671.38" y="541.52" type="right_before_left"/>
    <node id="1159495778" x="2424.01" y="917.77" type="priority"/>
    <node id="1169595198" x="2853.70" y="1900.65" type="right_before_left"/>
    <node id="1169595231" x="2901.56" y="1867.07" type="priority"/>
    <node id="1190064576" x="4340.57" y="3175.21" type="right_before_left"/>
    <node id="12009235" x="2320.47" y="2994.65" type="priority"/>
    <node id="12009236" x="2455.05" y="3058.72" type="right_before_left"/>
    <node id="12009241" x="2694.89" y="3140.31" type="right_before_left"/>
    <node id="12434745" x="3148.42" y="1911.76" type="priority"/>
    <node id="12434746" x="3189.32" y="1970.09" type="right_before_left"/>
    <node id="12633129" x="3554.76" y="2228.20" type="right_before_left"/>
    <node id="12633131" x="3513.17" y="2309.11" type="right_before_left"/>
    <node id="12633133" x="3241.31" y="1936.49" type="right_before_left"/>
    <node id="12633134" x="3304.96" y="2043.24" type="right_before_left"/>
    <node id="1276963413" x="1842.20" y="5941.40" type="right_before_left"/>
    <node id="1276963420" x="1800.39" y="6105.36" type="priority"/>
    <node id="12893532" x="605.42" y="5210.28" type="priority"/>
    <node id="12893539" x="408.79" y="5636.74" type="priority"/>
    <node id="1312335334" x="4036.31" y="278.35" type="priority"/>
    <node id="1313237317" x="3070.25" y="147.60" type="priority"/>
    <node id="1339091259" x="3042.10" y="1270.08" type="traffic_light" tl="1339091259"/>
    <node id="1339091488" x="2858.39" y="1428.54" type="priority"/>
    <node id="1339091522" x="2860.31" y="1459.01" type="priority"/>
    <node id="1341793740" x="3763.16" y="4161.88" type="priority"/>
    <node id="1341793748" x="3779.31" y="4161.33" type="priority"/>
    <node id="1342099857" x="2450.42" y="1660.45" type="priority"/>
    <node id="1342099930" x="2451.73" y="1633.61" type="priority"/>
    <node id="1343156547" x="1668.39" y="2194.83" type="priority"/>
    <node id="1343156549" x="1673.30" y="2255.05" type="priority"/>
    <node id="1343922641" x="2200.81" y="1709.66" type="right_before_left"/>
    <node id="1343922719" x="2220.22" y="1736.78" type="priority"/>
    <node id="1344810521" x="2545.85" y="1635.86" type="dead_end"/>
    <node id="1345766562" x="2243.76" y="3794.44" type="priority"/>
    <node id="1345766587" x="2269.95" y="3792.23" type="priority"/>
    <node id="1348711808" x="3062.40" y="1326.15" type="priority"/>
    <node id="1349511826" x="3011.90" y="1219.93" type="priority"/>
    <node id="1354712724" x="2189.79" y="3847.10" type="priority"/>
    <node id="13597239" x="3338.03" y="1873.90" type="right_before_left"/>
    <node id="13597243" x="3226.26" y="2020.18" type="right_before_left"/>
    <node id="13597244" x="3754.40" y="2062.97" type="right_before_left"/>
    <node id="13597245" x="3822.58" y="1973.50" type="right_before_left"/>
    <node id="1360122942" x="2980.31" y="449.96" type="right_before_left"/>
    <node id="13799038" x="2753.23" y="252.30" type="priority"/>
    <node id="13799040" x="2812.59" y="407.07" type="priority"/>
    <node id="1389396491" x="2841.24" y="1563.21" type="priority"/>
    <node id="1389478971" x="1754.27" y="6327.68" type="priority"/>
    <node id="139319632" x="2356.43" y="2455.58" type="priority"/>
    <node id="139319792" x="2372.62" y="2366.32" type="right_before_left"/>
    <node id="139320341" x="2712.52" y="2614.94" type="priority"/>
    <node id="139321453" x="2805.72" y="2578.19" type="right_before_left"/>
    <node id="139321810" x="2438.30" y="2674.25" type="right_before_left"/>
    <node id="139321930" x="2674.55" y="2755.36" type="priority"/>
    <node id="139322822" x="2602.95" y="2303.34" type="right_before_left"/>
    <node id="139329337" x="2846.79" y="2334.28" type="priority"/>
    <node id="139332275" x="2971.53" y="2490.49" type="priority"/>
    <node id="139335524" x="2416.56" y="2719.80" type="priority"/>
    <node id="139340678" x="2512.35" y="3152.24" type="priority"/>
    <node id="139341002" x="2538.68" y="2847.51" type="priority"/>
    <node id="139346386" x="3593.49" y="1931.87" type="right_before_left"/>
    <node id="1438121190" x="3138.83" y="1221.59" type="priority"/>
    <node id="1440487557" x="731.38" y="5105.57" type="priority"/>
    <node id="1440487560" x="286.92" y="5806.76" type="dead_end"/>
    <node id="1440499920" x="2059.60" y="4005.01" type="priority"/>
    <node id="1440499922" x="1816.09" y="4259.06" type="priority"/>
    <node id="1440499925" x="2215.93" y="3831.84" type="priority"/>
    <node id="1459428225" x="1427.48" y="5870.90" type="priority"/>
    <node id="1459428238" x="1378.77" y="5809.13" type="priority"/>
    <node id="1459428243" x="1381.69" y="5895.54" type="priority"/>
    <node id="14672924" x="2890.34" y="0.00" type="priority"/>
    <node id="14673851" x="3131.10" y="161.74" type="priority"/>
    <node id="1488714411" x="881.51" y="3998.72" type="priority"/>
    <node id="1488714412" x="886.17" y="3990.73" type="priority"/>
    <node id="15037314" x="3875.07" y="2103.79" type="right_before_left"/>
    <node id="15037317" x="3918.96" y="2135.20" type="right_before_left"/>
    <node id="15037319" x="3968.99" y="2121.24" type="right_before_left"/>
    <node id="1538875633" x="2182.85" y="1879.78" type="priority"/>
    <node id="1538875643" x="2269.46" y="1919.15" type="priority"/>
    <node id="1538875653" x="2175.87" y="1927.53" type="priority"/>
    <node id="1538875693" x="2182.44" y="1976.31" type="right_before_left"/>
    <node id="155319" x="484.59" y="3504.12" type="priority"/>
    <node id="155337" x="1017.23" y="3188.34" type="priority"/>
    <node id="156622240" x="1538.78" y="2201.75" type="priority"/>
    <node id="156623829" x="1612.78" y="2236.91" type="right_before_left"/>
    <node id="156624213" x="1669.31" y="2324.86" type="priority"/>
    <node id="156625907" x="1764.93" y="2005.24" type="priority"/>
    <node id="156665694" x="1813.88" y="1626.41" type="priority"/>
    <node id="156665907" x="1801.74" y="1741.53" type="right_before_left"/>
    <node id="156665908" x="1799.37" y="1761.88" type="priority"/>
    <node id="156666488" x="1881.88" y="1753.62" type="right_before_left"/>
    <node id="1601832385" x="3200.43" y="190.83" type="priority"/>
    <node id="16153710" x="2129.55" y="1066.36" type="priority"/>
    <node id="1626543811" x="2523.59" y="929.86" type="priority"/>
    <node id="16350647" x="2201.80" y="1173.76" type="right_before_left"/>
    <node id="16350652" x="2198.34" y="1150.33" type="priority"/>
    <node id="16350655" x="2252.54" y="1171.41" type="right_before_left"/>
    <node id="16350665" x="2252.71" y="1145.66" type="priority"/>
    <node id="1653312328" x="2020.27" y="4623.48" type="right_before_left"/>
    <node id="1653312331" x="2046.19" y="4620.06" type="priority"/>
    <node id="166386167" x="1850.31" y="1839.39" type="priority"/>
    <node id="166386168" x="1844.75" y="2007.11" type="priority"/>
    <node id="166450457" x="1693.09" y="1623.27" type="priority"/>
    <node id="166480891" x="1949.54" y="2343.44" type="right_before_left"/>
    <node id="166480894" x="1927.15" y="2500.05" type="right_before_left"/>
    <node id="166481926" x="1930.18" y="2555.94" type="priority"/>
    <node id="166490353" x="1945.62" y="2391.10" type="priority"/>
    <node id="166491839" x="2224.11" y="2455.04" type="right_before_left"/>
    <node id="166496923" x="1784.27" y="1478.50" type="priority"/>
    <node id="166506854" x="3144.85" y="2411.83" type="right_before_left"/>
    <node id="166507573" x="3211.43" y="2266.47" type="priority"/>
    <node id="166512639" x="3495.43" y="2526.74" type="priority"/>
    <node id="166513513" x="3385.81" y="2680.12" type="right_before_left"/>
    <node id="1670708026" x="3130.00" y="1420.63" type="right_before_left"/>
    <node id="1670708036" x="3205.03" y="1437.52" type="right_before_left"/>
    <node id="1670708038" x="3226.93" y="1442.34" type="priority"/>
    <node id="1670708054" x="3107.28" y="1468.11" type="right_before_left"/>
    <node id="1670708055" x="3170.57" y="1496.24" type="priority"/>
    <node id="1670708057" x="3055.71" y="1500.72" type="right_before_left"/>
    <node id="1670708061" x="3184.05" y="1529.70" type="priority"/>
    <node id="1670708067" x="2957.71" y="1562.37" type="right_before_left"/>
    <node id="1670708070" x="3201.62" y="1576.24" type="priority"/>
    <node id="1670708072" x="3151.44" y="1588.20" type="right_before_left"/>
    <node id="1670708083" x="3100.49" y="1592.13" type="right_before_left"/>
    <node id="1670708089" x="2750.71" y="1579.59" type="priority"/>
    <node id="1677474812" x="2616.21" y="575.19" type="priority"/>
    <node id="1677679826" x="2840.14" y="645.74" type="priority"/>
    <node id="168064" x="1639.05" y="1783.65" type="traffic_light" tl="GS_168064"/>
    <node id="168077" x="1623.20" y="2000.48" type="priority"/>
    <node id="168082" x="1368.80" y="2608.09" type="priority"/>
    <node id="168083" x="1350.42" y="2708.56" type="traffic_light" tl="GS_168083"/>
    <node id="168086" x="1914.46" y="2891.54" type="priority"/>
    <node id="168087" x="1930.42" y="2781.92" type="priority"/>
    <node id="168088" x="1300.46" y="2963.03" type="right_before_left"/>
    <node id="168089" x="2424.30" y="1436.58" type="traffic_light" tl="GS_168089"/>
    <node id="1682430990" x="2436.64" y="531.59" type="priority"/>
    <node id="1682453477" x="3225.19" y="233.36" type="priority"/>
    <node id="1684964845" x="4178.32" y="3602.52" type="right_before_left"/>
    <node id="1684964854" x="4172.37" y="3648.40" type="priority"/>
    <node id="1684989088" x="4184.64" y="3766.22" type="priority"/>
    <node id="1685760099" x="3871.57" y="790.27" type="traffic_light" tl="GS_1685760099"/>
    <node id="1685760107" x="3836.49" y="953.85" type="priority"/>
    <node id="1685760110" x="3834.26" y="962.63" type="priority"/>
    <node id="1685760112" x="3824.92" y="1004.42" type="priority"/>
    <node id="1685760114" x="3621.46" y="1020.45" type="priority"/>
    <node id="1685760118" x="3815.66" y="1042.17" type="priority"/>
    <node id="1685760134" x="3810.71" y="1062.73" type="right_before_left"/>
    <node id="1685806888" x="4331.51" y="657.05" type="priority"/>
    <node id="1694671757" x="4223.13" y="898.99" type="dead_end"/>
    <node id="1696840414" x="2695.18" y="1782.67" type="traffic_light" tl="GS_1696840414"/>
    <node id="1696840419" x="2688.67" y="1817.67" type="priority"/>
    <node id="1696840422" x="2545.37" y="1823.41" type="right_before_left"/>
    <node id="1696840425" x="2688.28" y="1859.82" type="right_before_left"/>
    <node id="1696840427" x="2690.99" y="1952.31" type="priority"/>
    <node id="1696840429" x="2810.51" y="1958.50" type="priority"/>
    <node id="1707790147" x="2923.04" y="230.33" type="right_before_left"/>
    <node id="1707790155" x="3009.39" y="276.58" type="right_before_left"/>
    <node id="171766281" x="1650.27" y="2000.09" type="priority"/>
    <node id="171766926" x="1655.55" y="1948.94" type="priority"/>
    <node id="171963413" x="1356.06" y="2676.22" type="priority"/>
    <node id="171986348" x="2161.66" y="3317.47" type="priority"/>
    <node id="171986857" x="2108.65" y="3271.65" type="right_before_left"/>
    <node id="171989409" x="2098.90" y="3386.38" type="right_before_left"/>
    <node id="171990979" x="2389.51" y="3621.77" type="right_before_left"/>
    <node id="171992254" x="2315.93" y="3701.82" type="priority"/>
    <node id="171992446" x="2176.14" y="3451.71" type="right_before_left"/>
    <node id="171992776" x="2112.57" y="3523.01" type="right_before_left"/>
    <node id="171999199" x="2006.65" y="3539.76" type="priority"/>
    <node id="1723315608" x="4048.50" y="31.90" type="priority"/>
    <node id="1753873914" x="3633.37" y="2991.85" type="priority"/>
    <node id="1753906026" x="2903.51" y="2321.65" type="dead_end"/>
    <node id="1754040831" x="2901.90" y="1879.67" type="priority"/>
    <node id="1754901528" x="3014.55" y="2673.76" type="priority"/>
    <node id="1754950894" x="2947.04" y="3539.17" type="right_before_left"/>
    <node id="1759040747" x="2834.14" y="790.31" type="priority"/>
    <node id="1759040769" x="2818.01" y="804.59" type="right_before_left"/>
    <node id="1786671762" x="1244.12" y="3583.54" type="priority"/>
    <node id="179013217" x="1586.00" y="3720.25" type="priority"/>
    <node id="1793814492" x="2505.97" y="4823.66" type="priority"/>
    <node id="181327481" x="1966.42" y="2206.10" type="priority"/>
    <node id="181327901" x="2205.27" y="4091.43" type="right_before_left"/>
    <node id="181327926" x="2298.30" y="4105.05" type="right_before_left"/>
    <node id="1828532835" x="3659.51" y="4642.19" type="priority"/>
    <node id="1828734465" x="3892.86" y="1992.89" type="priority"/>
    <node id="1828734469" x="4038.28" y="2114.70" type="priority"/>
    <node id="1834829670" x="4156.39" y="2387.21" type="priority"/>
    <node id="1840408272" x="1963.79" y="3772.73" type="right_before_left"/>
    <node id="1849085513" x="4106.83" y="2142.02" type="priority"/>
    <node id="1849085514" x="4105.52" y="2148.58" type="priority"/>
    <node id="1853160959" x="3551.47" y="1300.53" type="priority"/>
    <node id="1856062586" x="3594.88" y="1188.15" type="priority"/>
    <node id="1856068688" x="3217.29" y="1397.96" type="right_before_left"/>
    <node id="1856068689" x="3254.26" y="1417.86" type="right_before_left"/>
    <node id="186111071" x="2317.32" y="2750.19" type="priority"/>
    <node id="186113776" x="1982.94" y="2533.63" type="priority"/>
    <node id="186119704" x="1874.42" y="3450.94" type="right_before_left"/>
    <node id="186242230" x="2308.75" y="4431.92" type="priority"/>
    <node id="186242250" x="2449.23" y="4492.19" type="right_before_left"/>
    <node id="186242325" x="2338.44" y="4397.77" type="priority"/>
    <node id="186243169" x="2439.95" y="4549.12" type="right_before_left"/>
    <node id="186367841" x="3083.30" y="3593.13" type="priority"/>
    <node id="186367969" x="3233.79" y="3992.77" type="priority"/>
    <node id="186368545" x="3229.44" y="2835.50" type="right_before_left"/>
    <node id="186368698" x="3239.85" y="3187.61" type="right_before_left"/>
    <node id="186373696" x="3064.84" y="2903.40" type="priority"/>
    <node id="1865576089" x="2562.69" y="2899.42" type="priority"/>
    <node id="1865837496" x="2907.97" y="2437.17" type="right_before_left"/>
    <node id="18670878" x="2522.79" y="438.12" type="dead_end"/>
    <node id="18670883" x="2618.62" y="487.11" type="right_before_left"/>
    <node id="18670884" x="2671.40" y="385.90" type="priority"/>
    <node id="18672666" x="2656.87" y="614.56" type="right_before_left"/>
    <node id="18672669" x="2628.64" y="655.64" type="priority"/>
    <node id="18691137" x="2719.11" y="619.98" type="priority"/>
    <node id="18691138" x="2721.20" y="609.56" type="priority"/>
    <node id="18691139" x="2763.98" y="571.66" type="right_before_left"/>
    <node id="18691140" x="2796.17" y="620.36" type="right_before_left"/>
    <node id="18691141" x="2903.72" y="692.17" type="right_before_left"/>
    <node id="18691142" x="2803.21" y="619.50" type="priority"/>